data_default
_cell_volume          1039.135842
_symmetry_space_group_name_H-M 'P 1'
_symmetry_Int_Tables_number 1
loop_
_symmetry_equiv_pos_site_id
_symmetry_equiv_pos_as_xyz
1 x,y,z
_cell_length_a        10.3867000000
_cell_length_b        21.7578000000
_cell_length_c         6.7843000000
_cell_angle_alpha        90.0000
_cell_angle_beta       137.3313
_cell_angle_gamma        90.0000
_cell_formula_units_Z 1
loop_
_atom_site_label
_atom_site_type_symbol
_atom_site_fract_x
_atom_site_fract_y
_atom_site_fract_z
C1     C      0.34626000000000     0.25099000000000     0.24319000000000
C1     C      0.65374000000000     0.75099000000000     0.25681000000000
C1     C      0.65374000000000     0.74901000000000     0.75681000000000
C1     C      0.34626000000000     0.24901000000000     0.74319000000000
O2     O      0.17645000000000     0.27081000000000     0.98685000000000
O2     O      0.82355000000000     0.77081000000000     0.51315000000000
O2     O      0.82355000000000     0.72919000000000     0.01315000000000
O2     O      0.17645000000000     0.22919000000000     0.48685000000000
O3     O      0.37259000000000     0.19582000000000     0.28838000000000
O3     O      0.62741000000000     0.69582000000000     0.21162000000000
O3     O      0.62741000000000     0.80418000000000     0.71162000000000
O3     O      0.37259000000000     0.30418000000000     0.78838000000000
C4     C      0.49338000000000     0.29656000000000     0.45628000000000
C4     C      0.50662000000000     0.79656000000000     0.04372000000000
C4     C      0.50662000000000     0.70344000000000     0.54372000000000
C4     C      0.49338000000000     0.20344000000000     0.95628000000000
C5     C      0.66843000000000     0.28014000000000     0.72363000000000
C5     C      0.33157000000000     0.78014000000000     0.77637000000000
C5     C      0.33157000000000     0.71986000000000     0.27637000000000
C5     C      0.66843000000000     0.21986000000000     0.22363000000000
H6     H      0.45672000000000     0.34460000000000     0.39325000000000
H6     H      0.54328000000000     0.84460000000000     0.10675000000000
H6     H      0.54328000000000     0.65540000000000     0.60675000000000
H6     H      0.45672000000000     0.15540000000000     0.89325000000000
H7     H      0.70620000000000     0.23229000000000     0.78759000000000
H7     H      0.29380000000000     0.73229000000000     0.71241000000000
H7     H      0.29380000000000     0.76771000000000     0.21241000000000
H7     H      0.70620000000000     0.26771000000000     0.28759000000000
C8     C      0.81051000000000     0.32529000000000     0.93576000000000
C8     C      0.18949000000000     0.82529000000000     0.56424000000000
C8     C      0.18949000000000     0.67471000000000     0.06424000000000
C8     C      0.81051000000000     0.17471000000000     0.43576000000000
O9     O      0.77125000000000     0.38045000000000     0.87125000000000
O9     O      0.22875000000000     0.88045000000000     0.62875000000000
O9     O      0.22875000000000     0.61955000000000     0.12875000000000
O9     O      0.77125000000000     0.11955000000000     0.37125000000000
O10    O      0.96117000000000     0.30412000000000     0.17052000000000
O10    O      0.03883000000000     0.80412000000000     0.32948000000000
O10    O      0.03883000000000     0.69588000000000     0.82948000000000
O10    O      0.96117000000000     0.19588000000000     0.67052000000000
H28    H      0.09729000000000     0.23382000000000     0.87500000000000
H28    H      0.90271000000000     0.73382000000000     0.62500000000000
H28    H      0.90271000000000     0.76618000000000     0.12500000000000
H28    H      0.09729000000000     0.26618000000000     0.37500000000000
H11    H      0.75676000000000     0.61019000000000     0.11432000000000
H11    H      0.24324000000000     0.11019000000000     0.38568000000000
H11    H      0.24324000000000     0.38981000000000     0.88568000000000
H11    H      0.75676000000000     0.88981000000000     0.61432000000000
C12    C      0.89774000000000     0.59104000000000     0.24173000000000
C12    C      0.10226000000000     0.09104000000000     0.25827000000000
C12    C      0.10226000000000     0.40896000000000     0.75827000000000
C12    C      0.89774000000000     0.90896000000000     0.74173000000000
C13    C      0.06189000000000     0.62517000000000     0.45562000000000
C13    C      0.93811000000000     0.12517000000000     0.04438000000000
C13    C      0.93811000000000     0.37483000000000     0.54438000000000
C13    C      0.06189000000000     0.87483000000000     0.95562000000000
C14    C      0.07043000000000     0.51000000000000     0.33327000000000
C14    C      0.92957000000000     0.01000000000000     0.16673000000000
C14    C      0.92957000000000     0.49000000000000     0.66673000000000
C14    C      0.07043000000000     0.99000000000000     0.83327000000000
C15    C      0.23697000000000     0.59988000000000     0.61158000000000
C15    C      0.76303000000000     0.09988000000000     0.88842000000000
C15    C      0.76303000000000     0.40012000000000     0.38842000000000
C15    C      0.23697000000000     0.90012000000000     0.11158000000000
H16    H      0.04663000000000     0.67218000000000     0.49544000000000
H16    H      0.95337000000000     0.17218000000000     0.00456000000000
H16    H      0.95337000000000     0.32782000000000     0.50456000000000
H16    H      0.04663000000000     0.82782000000000     0.99544000000000
C17    C      0.24313000000000     0.53923000000000     0.54573000000000
C17    C      0.75687000000000     0.03923000000000     0.95427000000000
C17    C      0.75687000000000     0.46077000000000     0.45427000000000
C17    C      0.24313000000000     0.96077000000000     0.04573000000000
H18    H      0.36825000000000     0.62632000000000     0.78230000000000
H18    H      0.63175000000000     0.12632000000000     0.71770000000000
H18    H      0.63175000000000     0.37368000000000     0.21770000000000
H18    H      0.36825000000000     0.87368000000000     0.28230000000000
C19    C      0.41348000000000     0.50804000000000     0.68656000000000
C19    C      0.58652000000000     0.00804000000000     0.81344000000000
C19    C      0.58652000000000     0.49196000000000     0.31344000000000
C19    C      0.41348000000000     0.99196000000000     0.18656000000000
C20    C      0.20100000000000     0.42135000000000     0.37495000000000
C20    C      0.79900000000000     0.92135000000000     0.12505000000000
C20    C      0.79900000000000     0.57865000000000     0.62505000000000
C20    C      0.20100000000000     0.07865000000000     0.87495000000000
C21    C      0.37733000000000     0.44820000000000     0.58692000000000
C21    C      0.62267000000000     0.94820000000000     0.91308000000000
C21    C      0.62267000000000     0.55180000000000     0.41308000000000
C21    C      0.37733000000000     0.05180000000000     0.08692000000000
H22    H      0.55591000000000     0.52786000000000     0.85601000000000
H22    H      0.44409000000000     0.02786000000000     0.64399000000000
H22    H      0.44409000000000     0.47214000000000     0.14399000000000
H22    H      0.55591000000000     0.97214000000000     0.35601000000000
H23    H      0.18525000000000     0.37330000000000     0.30838000000000
H23    H      0.81475000000000     0.87330000000000     0.19162000000000
H23    H      0.81475000000000     0.62670000000000     0.69162000000000
H23    H      0.18525000000000     0.12670000000000     0.80838000000000
H24    H      0.49989000000000     0.41906000000000     0.68602000000000
H24    H      0.50011000000000     0.91906000000000     0.81398000000000
H24    H      0.50011000000000     0.58094000000000     0.31398000000000
H24    H      0.49989000000000     0.08094000000000     0.18602000000000
N25    N      0.89913000000000     0.53233000000000     0.17840000000000
N25    N      0.10087000000000     0.03233000000000     0.32160000000000
N25    N      0.10087000000000     0.46767000000000     0.82160000000000
N25    N      0.89913000000000     0.96767000000000     0.67840000000000
N26    N      0.04092000000000     0.45164000000000     0.23859000000000
N26    N      0.95908000000000     0.95164000000000     0.26141000000000
N26    N      0.95908000000000     0.54836000000000     0.76141000000000
N26    N      0.04092000000000     0.04836000000000     0.73859000000000
H27    H      0.90874000000000     0.43434000000000     0.08231000000000
H27    H      0.09126000000000     0.93434000000000     0.41769000000000
H27    H      0.09126000000000     0.56566000000000     0.91769000000000
H27    H      0.90874000000000     0.06566000000000     0.58231000000000
