data_default
_cell_volume          1065.740831
_symmetry_space_group_name_H-M 'P 1'
_symmetry_Int_Tables_number 1
loop_
_symmetry_equiv_pos_site_id
_symmetry_equiv_pos_as_xyz
1 x,y,z
_cell_length_a        21.7720000000
_cell_length_b        13.4314000000
_cell_length_c         3.6444500000
_cell_angle_alpha        90.0000
_cell_angle_beta        90.0000
_cell_angle_gamma        90.0000
_cell_formula_units_Z 1
loop_
_atom_site_label
_atom_site_type_symbol
_atom_site_fract_x
_atom_site_fract_y
_atom_site_fract_z
C1     C      0.29637000000000     0.39259000000000     0.51271000000000
C1     C      0.70363000000000     0.60741000000000     0.01271000000000
C1     C      0.20363000000000     0.89259000000000     0.01271000000000
C1     C      0.79637000000000     0.10741000000000     0.51271000000000
C2     C      0.20856000000000     0.48757000000000     0.35919000000000
C2     C      0.79144000000000     0.51243000000000     0.85919000000000
C2     C      0.29144000000000     0.98757000000000     0.85919000000000
C2     C      0.70856000000000     0.01243000000000     0.35919000000000
C3     C      0.17759000000000     0.39984000000000     0.26062000000000
C3     C      0.82241000000000     0.60016000000000     0.76062000000000
C3     C      0.32241000000000     0.89984000000000     0.76062000000000
C3     C      0.67759000000000     0.10016000000000     0.26062000000000
C4     C      0.20681000000000     0.30792000000000     0.28842000000000
C4     C      0.79319000000000     0.69208000000000     0.78842000000000
C4     C      0.29319000000000     0.80792000000000     0.78842000000000
C4     C      0.70681000000000     0.19208000000000     0.28842000000000
C5     C      0.26679000000000     0.30499000000000     0.41556000000000
C5     C      0.73321000000000     0.69501000000000     0.91556000000000
C5     C      0.23321000000000     0.80499000000000     0.91556000000000
C5     C      0.76679000000000     0.19501000000000     0.41556000000000
H1     H      0.34430000000000     0.39597000000000     0.60141000000000
H1     H      0.65570000000000     0.60403000000000     0.10141000000000
H1     H      0.15570000000000     0.89597000000000     0.10141000000000
H1     H      0.84430000000000     0.10403000000000     0.60141000000000
C6     C      0.11748000000000     0.40532000000000     0.13246000000000
C6     C      0.88252000000000     0.59468000000000     0.63246000000000
C6     C      0.38252000000000     0.90532000000000     0.63246000000000
C6     C      0.61748000000000     0.09468000000000     0.13246000000000
H2     H      0.18366000000000     0.23913000000000     0.21228000000000
H2     H      0.81634000000000     0.76087000000000     0.71228000000000
H2     H      0.31634000000000     0.73913000000000     0.71228000000000
H2     H      0.68366000000000     0.26087000000000     0.21228000000000
H3     H      0.29090000000000     0.23418000000000     0.43441000000000
H3     H      0.70910000000000     0.76582000000000     0.93441000000000
H3     H      0.20910000000000     0.73418000000000     0.93441000000000
H3     H      0.79090000000000     0.26582000000000     0.43441000000000
C7     C      0.09034000000000     0.49842000000000     0.11055000000000
C7     C      0.90966000000000     0.50158000000000     0.61055000000000
C7     C      0.40966000000000     0.99842000000000     0.61055000000000
C7     C      0.59034000000000     0.00158000000000     0.11055000000000
C8     C      0.12308000000000     0.58227000000000     0.21430000000000
C8     C      0.87692000000000     0.41773000000000     0.71430000000000
C8     C      0.37692000000000     0.08227000000000     0.71430000000000
C8     C      0.62308000000000     0.91773000000000     0.21430000000000
H4     H      0.09208000000000     0.33912000000000     0.04850000000000
H4     H      0.90792000000000     0.66088000000000     0.54850000000000
H4     H      0.40792000000000     0.83912000000000     0.54850000000000
H4     H      0.59208000000000     0.16088000000000     0.04850000000000
H5     H      0.04350000000000     0.50709000000000     0.01114000000000
H5     H      0.95650000000000     0.49291000000000     0.51114000000000
H5     H      0.45650000000000     0.00709000000000     0.51114000000000
H5     H      0.54350000000000     0.99291000000000     0.01114000000000
H6     H      0.10317000000000     0.65629000000000     0.19597000000000
H6     H      0.89683000000000     0.34371000000000     0.69597000000000
H6     H      0.39683000000000     0.15629000000000     0.69597000000000
H6     H      0.60317000000000     0.84371000000000     0.19597000000000
N1     N      0.18140000000000     0.57701000000000     0.33585000000000
N1     N      0.81860000000000     0.42299000000000     0.83585000000000
N1     N      0.31860000000000     0.07701000000000     0.83585000000000
N1     N      0.68140000000000     0.92299000000000     0.33585000000000
N2     N      0.26699000000000     0.48059000000000     0.47321000000000
N2     N      0.73301000000000     0.51941000000000     0.97321000000000
N2     N      0.23301000000000     0.98059000000000     0.97321000000000
N2     N      0.76699000000000     0.01941000000000     0.47321000000000
H7     H      0.29304000000000     0.54335000000000     0.43848000000000
H7     H      0.70696000000000     0.45665000000000     0.93848000000000
H7     H      0.20696000000000     0.04335000000000     0.93848000000000
H7     H      0.79304000000000     0.95665000000000     0.43848000000000
C1     C      0.06160000000000     0.16056000000000     0.48060000000000
C1     C      0.93840000000000     0.83944000000000     0.98060000000000
C1     C      0.43840000000000     0.66056000000000     0.98060000000000
C1     C      0.56160000000000     0.33944000000000     0.48060000000000
H1     H      0.07290000000000     0.23818000000000     0.52691000000000
H1     H      0.92710000000000     0.76182000000000     0.02691000000000
H1     H      0.42710000000000     0.73818000000000     0.02691000000000
H1     H      0.57290000000000     0.26182000000000     0.52691000000000
C2     C      0.00668000000000     0.14401000000000     0.32120000000000
C2     C      0.99332000000000     0.85599000000000     0.82120000000000
C2     C      0.49332000000000     0.64401000000000     0.82120000000000
C2     C      0.50668000000000     0.35599000000000     0.32120000000000
H2     H      0.99445000000000     0.06650000000000     0.27881000000000
H2     H      0.00555000000000     0.93350000000000     0.77881000000000
H2     H      0.50555000000000     0.56650000000000     0.77881000000000
H2     H      0.49445000000000     0.43350000000000     0.27881000000000
C3     C      0.96364000000000     0.22068000000000     0.19854000000000
C3     C      0.03636000000000     0.77932000000000     0.69854000000000
C3     C      0.53636000000000     0.72068000000000     0.69854000000000
C3     C      0.46364000000000     0.27932000000000     0.19854000000000
C4     C      0.10954000000000     0.09042000000000     0.60658000000000
C4     C      0.89046000000000     0.90958000000000     0.10658000000000
C4     C      0.39046000000000     0.59042000000000     0.10658000000000
C4     C      0.60954000000000     0.40958000000000     0.60658000000000
O1     O      0.15616000000000     0.12495000000000     0.73830000000000
O1     O      0.84384000000000     0.87505000000000     0.23830000000000
O1     O      0.34384000000000     0.62495000000000     0.23830000000000
O1     O      0.65616000000000     0.37505000000000     0.73830000000000
O2     O      0.97527000000000     0.30884000000000     0.20944000000000
O2     O      0.02473000000000     0.69116000000000     0.70944000000000
O2     O      0.52473000000000     0.80884000000000     0.70944000000000
O2     O      0.47527000000000     0.19116000000000     0.20944000000000
O3     O      0.10317000000000     0.00088000000000     0.57739000000000
O3     O      0.89683000000000     0.99912000000000     0.07739000000000
O3     O      0.39683000000000     0.50088000000000     0.07739000000000
O3     O      0.60317000000000     0.49912000000000     0.57739000000000
O4     O      0.91243000000000     0.18822000000000     0.06773000000000
O4     O      0.08757000000000     0.81178000000000     0.56773000000000
O4     O      0.58757000000000     0.68822000000000     0.56773000000000
O4     O      0.41243000000000     0.31178000000000     0.06773000000000
H3     H      0.91492000000000     0.11339000000000     0.08722000000000
H3     H      0.08508000000000     0.88661000000000     0.58722000000000
H3     H      0.58508000000000     0.61339000000000     0.58722000000000
H3     H      0.41492000000000     0.38661000000000     0.08722000000000
