data_default
_cell_volume          1147.381336
_symmetry_space_group_name_H-M 'P 1'
_symmetry_Int_Tables_number 1
loop_
_symmetry_equiv_pos_site_id
_symmetry_equiv_pos_as_xyz
1 x,y,z
_cell_length_a        22.8952000000
_cell_length_b         3.7199000000
_cell_length_c        13.4720000000
_cell_angle_alpha        90.0000
_cell_angle_beta        90.0000
_cell_angle_gamma        90.0000
_cell_formula_units_Z 1
loop_
_atom_site_label
_atom_site_type_symbol
_atom_site_fract_x
_atom_site_fract_y
_atom_site_fract_z
N1     N      0.27757000000000     0.64573000000000     0.94811000000000
N1     N      0.72243000000000     0.35427000000000     0.44811000000000
N1     N      0.77757000000000     0.35427000000000     0.94811000000000
N1     N      0.22243000000000     0.64573000000000     0.44811000000000
H1     H      0.30644000000000     0.57230000000000     0.90030000000000
H1     H      0.69356000000000     0.42770000000000     0.40030000000000
H1     H      0.80644000000000     0.42770000000000     0.90030000000000
H1     H      0.19356000000000     0.57230000000000     0.40030000000000
C1     C      0.19072000000000     0.84722000000000     0.08015000000000
C1     C      0.80928000000000     0.15278000000000     0.58015000000000
C1     C      0.69072000000000     0.15278000000000     0.08015000000000
C1     C      0.30928000000000     0.84722000000000     0.58015000000000
H3     H      0.15931000000000     0.92100000000000     0.13037000000000
H3     H      0.84069000000000     0.07900000000000     0.63037000000000
H3     H      0.65931000000000     0.07900000000000     0.13037000000000
H3     H      0.34069000000000     0.92100000000000     0.63037000000000
C2     C      0.17586000000000     0.71846000000000     0.98501000000000
C2     C      0.82414000000000     0.28154000000000     0.48501000000000
C2     C      0.67586000000000     0.28154000000000     0.98501000000000
C2     C      0.32414000000000     0.71846000000000     0.48501000000000
C3     C      0.21044000000000     0.48593000000000     0.82875000000000
C3     C      0.78956000000000     0.51407000000000     0.32875000000000
C3     C      0.71044000000000     0.51407000000000     0.82875000000000
C3     C      0.28956000000000     0.48593000000000     0.32875000000000
C4     C      0.29353000000000     0.77002000000000     0.03866000000000
C4     C      0.70647000000000     0.22998000000000     0.53866000000000
C4     C      0.79353000000000     0.22998000000000     0.03866000000000
C4     C      0.20647000000000     0.77002000000000     0.53866000000000
H5     H      0.33683000000000     0.78765000000000     0.05744000000000
H5     H      0.66317000000000     0.21235000000000     0.55744000000000
H5     H      0.83683000000000     0.21235000000000     0.05744000000000
H5     H      0.16317000000000     0.78765000000000     0.55744000000000
C6     C      0.22160000000000     0.61689000000000     0.92003000000000
C6     C      0.77840000000000     0.38311000000000     0.42003000000000
C6     C      0.72160000000000     0.38311000000000     0.92003000000000
C6     C      0.27840000000000     0.61689000000000     0.42003000000000
C7     C      0.15527000000000     0.44879000000000     0.79451000000000
C7     C      0.84473000000000     0.55121000000000     0.29451000000000
C7     C      0.65527000000000     0.55121000000000     0.79451000000000
C7     C      0.34473000000000     0.44879000000000     0.29451000000000
H6     H      0.14832000000000     0.35009000000000     0.72473000000000
H6     H      0.85168000000000     0.64991000000000     0.22473000000000
H6     H      0.64832000000000     0.64991000000000     0.72473000000000
H6     H      0.35168000000000     0.35009000000000     0.22473000000000
C8     C      0.11807000000000     0.68369000000000     0.95081000000000
C8     C      0.88193000000000     0.31631000000000     0.45081000000000
C8     C      0.61807000000000     0.31631000000000     0.95081000000000
C8     C      0.38193000000000     0.68369000000000     0.45081000000000
H7     H      0.08343000000000     0.75734000000000     0.99425000000000
H7     H      0.91657000000000     0.24266000000000     0.49425000000000
H7     H      0.58343000000000     0.24266000000000     0.99425000000000
H7     H      0.41657000000000     0.75734000000000     0.49425000000000
C9     C      0.24997000000000     0.87335000000000     0.10653000000000
C9     C      0.75003000000000     0.12665000000000     0.60653000000000
C9     C      0.74997000000000     0.12665000000000     0.10653000000000
C9     C      0.25003000000000     0.87335000000000     0.60653000000000
H8     H      0.26114000000000     0.96676000000000     0.17530000000000
H8     H      0.73886000000000     0.03324000000000     0.67530000000000
H8     H      0.76114000000000     0.03324000000000     0.17530000000000
H8     H      0.23886000000000     0.96676000000000     0.67530000000000
C13    C      0.10808000000000     0.54660000000000     0.85519000000000
C13    C      0.89192000000000     0.45340000000000     0.35519000000000
C13    C      0.60808000000000     0.45340000000000     0.85519000000000
C13    C      0.39192000000000     0.54660000000000     0.35519000000000
H11    H      0.06656000000000     0.51690000000000     0.82909000000000
H11    H      0.93344000000000     0.48310000000000     0.32909000000000
H11    H      0.56656000000000     0.48310000000000     0.82909000000000
H11    H      0.43344000000000     0.51690000000000     0.32909000000000
O1     O      0.94975000000000     0.93427000000000     0.16657000000000
O1     O      0.05025000000000     0.06573000000000     0.66657000000000
O1     O      0.44975000000000     0.06573000000000     0.16657000000000
O1     O      0.55025000000000     0.93427000000000     0.66657000000000
O2     O      0.10607000000000     0.20575000000000     0.42308000000000
O2     O      0.89393000000000     0.79425000000000     0.92308000000000
O2     O      0.60607000000000     0.79425000000000     0.42308000000000
O2     O      0.39393000000000     0.20575000000000     0.92308000000000
O3     O      0.13991000000000     0.44792000000000     0.29190000000000
O3     O      0.86009000000000     0.55208000000000     0.79190000000000
O3     O      0.63991000000000     0.55208000000000     0.29190000000000
O3     O      0.36009000000000     0.44792000000000     0.79190000000000
O4     O      0.98509000000000     0.17030000000000     0.03043000000000
O4     O      0.01491000000000     0.82970000000000     0.53043000000000
O4     O      0.48509000000000     0.82970000000000     0.03043000000000
O4     O      0.51491000000000     0.17030000000000     0.53043000000000
H2     H      0.94994000000000     0.06732000000000     0.00079000000000
H2     H      0.05006000000000     0.93268000000000     0.50079000000000
H2     H      0.44994000000000     0.93268000000000     0.00079000000000
H2     H      0.55006000000000     0.06732000000000     0.50079000000000
C5     C      0.10016000000000     0.27169000000000     0.33268000000000
C5     C      0.89984000000000     0.72831000000000     0.83268000000000
C5     C      0.60016000000000     0.72831000000000     0.33268000000000
C5     C      0.39984000000000     0.27169000000000     0.83268000000000
C10    C      0.05027000000000     0.15792000000000     0.28181000000000
C10    C      0.94973000000000     0.84208000000000     0.78181000000000
C10    C      0.55027000000000     0.84208000000000     0.28181000000000
C10    C      0.44973000000000     0.15792000000000     0.78181000000000
H9     H      0.02032000000000     0.01734000000000     0.32228000000000
H9     H      0.97968000000000     0.98266000000000     0.82228000000000
H9     H      0.52032000000000     0.98266000000000     0.32228000000000
H9     H      0.47968000000000     0.01734000000000     0.82228000000000
C11    C      0.99034000000000     0.10794000000000     0.12781000000000
C11    C      0.00966000000000     0.89206000000000     0.62781000000000
C11    C      0.49034000000000     0.89206000000000     0.12781000000000
C11    C      0.50966000000000     0.10794000000000     0.62781000000000
C12    C      0.03964000000000     0.22366000000000     0.18014000000000
C12    C      0.96036000000000     0.77634000000000     0.68014000000000
C12    C      0.53964000000000     0.77634000000000     0.18014000000000
C12    C      0.46036000000000     0.22366000000000     0.68014000000000
H10    H      0.06992000000000     0.36350000000000     0.14031000000000
H10    H      0.93008000000000     0.63650000000000     0.64031000000000
H10    H      0.56992000000000     0.63650000000000     0.14031000000000
H10    H      0.43008000000000     0.36350000000000     0.64031000000000
