data_default
_cell_volume          1130.020231
_symmetry_space_group_name_H-M 'P 1'
_symmetry_Int_Tables_number 1
loop_
_symmetry_equiv_pos_site_id
_symmetry_equiv_pos_as_xyz
1 x,y,z
_cell_length_a        23.9680000000
_cell_length_b         3.7010000000
_cell_length_c        12.7390000000
_cell_angle_alpha        90.0000
_cell_angle_beta        90.0000
_cell_angle_gamma        90.0000
_cell_formula_units_Z 1
loop_
_atom_site_label
_atom_site_type_symbol
_atom_site_fract_x
_atom_site_fract_y
_atom_site_fract_z
N1     N      0.71145000000000     0.57376000000000     0.45319000000000
N1     N      0.28855000000000     0.42624000000000     0.95319000000000
N1     N      0.21145000000000     0.42624000000000     0.45319000000000
N1     N      0.78855000000000     0.57376000000000     0.95319000000000
C2     C      0.65642000000000     0.58433000000000     0.44611000000000
C2     C      0.34358000000000     0.41567000000000     0.94611000000000
C2     C      0.15642000000000     0.41567000000000     0.44611000000000
C2     C      0.84358000000000     0.58433000000000     0.94611000000000
H3     H      0.63501000000000     0.67817000000000     0.51445000000000
H3     H      0.36499000000000     0.32183000000000     0.01445000000000
H3     H      0.13501000000000     0.32183000000000     0.51445000000000
H3     H      0.86499000000000     0.67817000000000     0.01445000000000
C4     C      0.62623000000000     0.48097000000000     0.35518000000000
C4     C      0.37377000000000     0.51903000000000     0.85518000000000
C4     C      0.12623000000000     0.51903000000000     0.35518000000000
C4     C      0.87377000000000     0.48097000000000     0.85518000000000
H5     H      0.58144000000000     0.49763000000000     0.35522000000000
H5     H      0.41856000000000     0.50237000000000     0.85522000000000
H5     H      0.08144000000000     0.50237000000000     0.35522000000000
H5     H      0.91856000000000     0.49763000000000     0.85522000000000
C6     C      0.65532000000000     0.36351000000000     0.26884000000000
C6     C      0.34468000000000     0.63649000000000     0.76884000000000
C6     C      0.15532000000000     0.63649000000000     0.26884000000000
C6     C      0.84468000000000     0.36351000000000     0.76884000000000
H7     H      0.63453000000000     0.28573000000000     0.19819000000000
H7     H      0.36547000000000     0.71427000000000     0.69819000000000
H7     H      0.13453000000000     0.71427000000000     0.19819000000000
H7     H      0.86547000000000     0.28573000000000     0.69819000000000
C8     C      0.71485000000000     0.34488000000000     0.27270000000000
C8     C      0.28515000000000     0.65512000000000     0.77270000000000
C8     C      0.21485000000000     0.65512000000000     0.27270000000000
C8     C      0.78515000000000     0.34488000000000     0.77270000000000
C9     C      0.73992000000000     0.45574000000000     0.36858000000000
C9     C      0.26008000000000     0.54426000000000     0.86858000000000
C9     C      0.23992000000000     0.54426000000000     0.36858000000000
C9     C      0.76008000000000     0.45574000000000     0.86858000000000
N10    N      0.79664000000000     0.44457000000000     0.37602000000000
N10    N      0.20336000000000     0.55543000000000     0.87602000000000
N10    N      0.29664000000000     0.55543000000000     0.37602000000000
N10    N      0.70336000000000     0.44457000000000     0.87602000000000
H11    H      0.81284000000000     0.52553000000000     0.44501000000000
H11    H      0.18716000000000     0.47447000000000     0.94501000000000
H11    H      0.31284000000000     0.47447000000000     0.44501000000000
H11    H      0.68716000000000     0.52553000000000     0.94501000000000
C12    C      0.83028000000000     0.33665000000000     0.29856000000000
C12    C      0.16972000000000     0.66335000000000     0.79856000000000
C12    C      0.33028000000000     0.66335000000000     0.29856000000000
C12    C      0.66972000000000     0.33665000000000     0.79856000000000
H13    H      0.87427000000000     0.34197000000000     0.31347000000000
H13    H      0.12573000000000     0.65803000000000     0.81347000000000
H13    H      0.37427000000000     0.65803000000000     0.31347000000000
H13    H      0.62573000000000     0.34197000000000     0.81347000000000
C14    C      0.80711000000000     0.22386000000000     0.20296000000000
C14    C      0.19289000000000     0.77614000000000     0.70296000000000
C14    C      0.30711000000000     0.77614000000000     0.20296000000000
C14    C      0.69289000000000     0.22386000000000     0.70296000000000
H15    H      0.83453000000000     0.13696000000000     0.14165000000000
H15    H      0.16547000000000     0.86304000000000     0.64165000000000
H15    H      0.33453000000000     0.86304000000000     0.14165000000000
H15    H      0.66547000000000     0.13696000000000     0.64165000000000
C16    C      0.74987000000000     0.22846000000000     0.19019000000000
C16    C      0.25013000000000     0.77154000000000     0.69019000000000
C16    C      0.24987000000000     0.77154000000000     0.19019000000000
C16    C      0.75013000000000     0.22846000000000     0.69019000000000
H17    H      0.73155000000000     0.14346000000000     0.11736000000000
H17    H      0.26845000000000     0.85654000000000     0.61736000000000
H17    H      0.23155000000000     0.85654000000000     0.11736000000000
H17    H      0.76845000000000     0.14346000000000     0.61736000000000
O18    O      0.85485000000000     0.70444000000000     0.53791000000000
O18    O      0.14515000000000     0.29556000000000     0.03791000000000
O18    O      0.35485000000000     0.29556000000000     0.53791000000000
O18    O      0.64515000000000     0.70444000000000     0.03791000000000
O19    O      0.91665000000000     0.87843000000000     0.41896000000000
O19    O      0.08335000000000     0.12157000000000     0.91896000000000
O19    O      0.41665000000000     0.12157000000000     0.41896000000000
O19    O      0.58335000000000     0.87843000000000     0.91896000000000
C20    C      0.90127000000000     0.81841000000000     0.51021000000000
C20    C      0.09873000000000     0.18159000000000     0.01021000000000
C20    C      0.40127000000000     0.18159000000000     0.51021000000000
C20    C      0.59873000000000     0.81841000000000     0.01021000000000
C21    C      0.94295000000000     0.89317000000000     0.59889000000000
C21    C      0.05705000000000     0.10683000000000     0.09889000000000
C21    C      0.44295000000000     0.10683000000000     0.59889000000000
C21    C      0.55705000000000     0.89317000000000     0.09889000000000
H22    H      0.92779000000000     0.83422000000000     0.67576000000000
H22    H      0.07221000000000     0.16578000000000     0.17576000000000
H22    H      0.42779000000000     0.16578000000000     0.67576000000000
H22    H      0.57221000000000     0.83422000000000     0.17576000000000
C23    C      0.99408000000000     0.02267000000000     0.58790000000000
C23    C      0.00592000000000     0.97733000000000     0.08790000000000
C23    C      0.49408000000000     0.97733000000000     0.58790000000000
C23    C      0.50592000000000     0.02267000000000     0.08790000000000
H24    H      0.00993000000000     0.08357000000000     0.51141000000000
H24    H      0.99007000000000     0.91643000000000     0.01141000000000
H24    H      0.50993000000000     0.91643000000000     0.51141000000000
H24    H      0.49007000000000     0.08357000000000     0.01141000000000
C25    C      0.03200000000000     0.09652000000000     0.67541000000000
C25    C      0.96800000000000     0.90348000000000     0.17541000000000
C25    C      0.53200000000000     0.90348000000000     0.67541000000000
C25    C      0.46800000000000     0.09652000000000     0.17541000000000
O26    O      0.07859000000000     0.21687000000000     0.66596000000000
O26    O      0.92141000000000     0.78313000000000     0.16596000000000
O26    O      0.57859000000000     0.78313000000000     0.66596000000000
O26    O      0.42141000000000     0.21687000000000     0.16596000000000
O27    O      0.01201000000000     0.02359000000000     0.76970000000000
O27    O      0.98799000000000     0.97641000000000     0.26970000000000
O27    O      0.51201000000000     0.97641000000000     0.76970000000000
O27    O      0.48799000000000     0.02359000000000     0.26970000000000
H28    H      0.04195000000000     0.08657000000000     0.81705000000000
H28    H      0.95805000000000     0.91343000000000     0.31705000000000
H28    H      0.54195000000000     0.91343000000000     0.81705000000000
H28    H      0.45805000000000     0.08657000000000     0.31705000000000
