data_default
_cell_volume           553.031153
_symmetry_space_group_name_H-M 'P 1'
_symmetry_Int_Tables_number 1
loop_
_symmetry_equiv_pos_site_id
_symmetry_equiv_pos_as_xyz
1 x,y,z
_cell_length_a         3.6320000000
_cell_length_b        11.1765000000
_cell_length_c        14.1400000000
_cell_angle_alpha        99.6980
_cell_angle_beta        96.7900
_cell_angle_gamma        98.7710
_cell_formula_units_Z 1
loop_
_atom_site_label
_atom_site_type_symbol
_atom_site_fract_x
_atom_site_fract_y
_atom_site_fract_z
N1     N      0.91022000000000     0.58095000000000     0.39807000000000
N1     N      0.08978000000000     0.41905000000000     0.60193000000000
N2     N      0.74212000000000     0.53583000000000     0.23335000000000
N2     N      0.25788000000000     0.46417000000000     0.76665000000000
C1     C      0.95669000000000     0.83360000000000     0.39810000000000
C1     C      0.04331000000000     0.16640000000000     0.60190000000000
C2     C      0.85481000000000     0.74656000000000     0.30959000000000
C2     C      0.14519000000000     0.25344000000000     0.69041000000000
C3     C      0.83860000000000     0.62245000000000     0.31640000000000
C3     C      0.16140000000000     0.37755000000000     0.68360000000000
C4     C      0.00267000000000     0.66309000000000     0.47780000000000
C4     C      0.99733000000000     0.33691000000000     0.52220000000000
C5     C      0.03022000000000     0.79185000000000     0.48180000000000
C5     C      0.96978000000000     0.20815000000000     0.51820000000000
C6     C      0.66305000000000     0.56291000000000     0.14672000000000
C6     C      0.33695000000000     0.43709000000000     0.85328000000000
C7     C      0.67485000000000     0.68437000000000     0.13588000000000
C7     C      0.32515000000000     0.31563000000000     0.86412000000000
C8     C      0.77066000000000     0.77578000000000     0.21732000000000
C8     C      0.22934000000000     0.22422000000000     0.78268000000000
O1     O      0.12702000000000     0.34226000000000     0.21273000000000
O1     O      0.87298000000000     0.65774000000000     0.78727000000000
O6     O      0.35813000000000     0.20728000000000     0.31978000000000
O6     O      0.64187000000000     0.79272000000000     0.68022000000000
O7     O      0.94956000000000     0.32987000000000     0.05509000000000
O7     O      0.05044000000000     0.67013000000000     0.94491000000000
O8     O      0.47908000000000     0.01932000000000     0.29947000000000
O8     O      0.52092000000000     0.98068000000000     0.70053000000000
C4     C      0.26212000000000     0.08355000000000     0.15828000000000
C4     C      0.73788000000000     0.91645000000000     0.84172000000000
C9     C      0.06447000000000     0.28947000000000     0.12564000000000
C9     C      0.93553000000000     0.71053000000000     0.87436000000000
C10    C      0.13846000000000     0.15725000000000     0.10195000000000
C10    C      0.86154000000000     0.84275000000000     0.89805000000000
C11    C      0.37527000000000     0.10266000000000     0.26614000000000
C11    C      0.62473000000000     0.89734000000000     0.73386000000000
H1     H      0.06016000000000     0.62863000000000     0.54359000000000
H1     H      0.93984000000000     0.37137000000000     0.45641000000000
H2     H      0.10826000000000     0.85365000000000     0.55053000000000
H2     H      0.89174000000000     0.14635000000000     0.44947000000000
H3     H      0.97395000000000     0.93036000000000     0.39756000000000
H3     H      0.02605000000000     0.06964000000000     0.60244000000000
H4     H      0.78183000000000     0.87074000000000     0.21083000000000
H4     H      0.21817000000000     0.12926000000000     0.78917000000000
H5     H      0.60979000000000     0.70462000000000     0.06498000000000
H5     H      0.39021000000000     0.29538000000000     0.93502000000000
H6     H      0.59061000000000     0.48688000000000     0.08647000000000
H6     H      0.40939000000000     0.51312000000000     0.91353000000000
H7     H      0.73365000000000     0.44802000000000     0.24125000000000
H7     H      0.26635000000000     0.55198000000000     0.75875000000000
H1     H      0.26582000000000     0.26667000000000     0.28057000000000
H1     H      0.73418000000000     0.73333000000000     0.71943000000000
H9     H      0.29219000000000     0.99249000000000     0.12436000000000
H9     H      0.70781000000000     0.00751000000000     0.87564000000000
H10    H      0.07604000000000     0.12021000000000     0.02522000000000
H10    H      0.92396000000000     0.87979000000000     0.97478000000000
