data_default
_cell_volume          1129.408929
_symmetry_space_group_name_H-M 'P 1'
_symmetry_Int_Tables_number 1
loop_
_symmetry_equiv_pos_site_id
_symmetry_equiv_pos_as_xyz
1 x,y,z
_cell_length_a        23.9400000000
_cell_length_b         3.7010000000
_cell_length_c        12.7470000000
_cell_angle_alpha        90.0000
_cell_angle_beta        90.0000
_cell_angle_gamma        90.0000
_cell_formula_units_Z 1
loop_
_atom_site_label
_atom_site_type_symbol
_atom_site_fract_x
_atom_site_fract_y
_atom_site_fract_z
N1     N      0.21171000000000     0.42751000000000     0.95034000000000
N1     N      0.78829000000000     0.57249000000000     0.45034000000000
N1     N      0.71171000000000     0.57249000000000     0.95034000000000
N1     N      0.28829000000000     0.42751000000000     0.45034000000000
C2     C      0.15662000000000     0.41672000000000     0.94337000000000
C2     C      0.84338000000000     0.58328000000000     0.44337000000000
C2     C      0.65662000000000     0.58328000000000     0.94337000000000
C2     C      0.34338000000000     0.41672000000000     0.44337000000000
H3     H      0.13523000000000     0.32276000000000     0.01170000000000
H3     H      0.86477000000000     0.67724000000000     0.51170000000000
H3     H      0.63523000000000     0.67724000000000     0.01170000000000
H3     H      0.36477000000000     0.32276000000000     0.51170000000000
C4     C      0.12634000000000     0.51997000000000     0.85257000000000
C4     C      0.87366000000000     0.48003000000000     0.35257000000000
C4     C      0.62634000000000     0.48003000000000     0.85257000000000
C4     C      0.37366000000000     0.51997000000000     0.35257000000000
H5     H      0.08150000000000     0.50312000000000     0.85269000000000
H5     H      0.91850000000000     0.49688000000000     0.35269000000000
H5     H      0.58150000000000     0.49688000000000     0.85269000000000
H5     H      0.41850000000000     0.50312000000000     0.35269000000000
C6     C      0.15540000000000     0.63756000000000     0.76624000000000
C6     C      0.84460000000000     0.36244000000000     0.26624000000000
C6     C      0.65540000000000     0.36244000000000     0.76624000000000
C6     C      0.34460000000000     0.63756000000000     0.26624000000000
H7     H      0.13453000000000     0.71530000000000     0.69568000000000
H7     H      0.86547000000000     0.28470000000000     0.19568000000000
H7     H      0.63453000000000     0.28470000000000     0.69568000000000
H7     H      0.36547000000000     0.71530000000000     0.19568000000000
C8     C      0.21500000000000     0.65639000000000     0.77000000000000
C8     C      0.78500000000000     0.34361000000000     0.27000000000000
C8     C      0.71500000000000     0.34361000000000     0.77000000000000
C8     C      0.28500000000000     0.65639000000000     0.27000000000000
C9     C      0.24014000000000     0.54564000000000     0.86576000000000
C9     C      0.75986000000000     0.45436000000000     0.36576000000000
C9     C      0.74014000000000     0.45436000000000     0.86576000000000
C9     C      0.25986000000000     0.54564000000000     0.36576000000000
N10    N      0.29691000000000     0.55701000000000     0.87306000000000
N10    N      0.70309000000000     0.44299000000000     0.37306000000000
N10    N      0.79691000000000     0.44299000000000     0.87306000000000
N10    N      0.20309000000000     0.55701000000000     0.37306000000000
H11    H      0.31320000000000     0.47602000000000     0.94205000000000
H11    H      0.68680000000000     0.52398000000000     0.44205000000000
H11    H      0.81320000000000     0.52398000000000     0.94205000000000
H11    H      0.18680000000000     0.47602000000000     0.44205000000000
C12    C      0.33055000000000     0.66497000000000     0.79561000000000
C12    C      0.66945000000000     0.33503000000000     0.29561000000000
C12    C      0.83055000000000     0.33503000000000     0.79561000000000
C12    C      0.16945000000000     0.66497000000000     0.29561000000000
H13    H      0.37459000000000     0.65978000000000     0.81041000000000
H13    H      0.62541000000000     0.34022000000000     0.31041000000000
H13    H      0.87459000000000     0.34022000000000     0.81041000000000
H13    H      0.12541000000000     0.65978000000000     0.31041000000000
C14    C      0.30731000000000     0.77765000000000     0.70011000000000
C14    C      0.69269000000000     0.22235000000000     0.20011000000000
C14    C      0.80731000000000     0.22235000000000     0.70011000000000
C14    C      0.19269000000000     0.77765000000000     0.20011000000000
H15    H      0.33471000000000     0.86457000000000     0.63878000000000
H15    H      0.66529000000000     0.13543000000000     0.13878000000000
H15    H      0.83471000000000     0.13543000000000     0.63878000000000
H15    H      0.16529000000000     0.86457000000000     0.13878000000000
C16    C      0.25000000000000     0.77290000000000     0.68747000000000
C16    C      0.75000000000000     0.22710000000000     0.18747000000000
C16    C      0.75000000000000     0.22710000000000     0.68747000000000
C16    C      0.25000000000000     0.77290000000000     0.18747000000000
H17    H      0.23161000000000     0.85780000000000     0.61471000000000
H17    H      0.76839000000000     0.14220000000000     0.11471000000000
H17    H      0.73161000000000     0.14220000000000     0.61471000000000
H17    H      0.26839000000000     0.85780000000000     0.11471000000000
O18    O      0.35477000000000     0.30103000000000     0.03437000000000
O18    O      0.64523000000000     0.69897000000000     0.53437000000000
O18    O      0.85477000000000     0.69897000000000     0.03437000000000
O18    O      0.14523000000000     0.30103000000000     0.53437000000000
O19    O      0.41666000000000     0.12408000000000     0.91606000000000
O19    O      0.58334000000000     0.87592000000000     0.41606000000000
O19    O      0.91666000000000     0.87592000000000     0.91606000000000
O19    O      0.08334000000000     0.12408000000000     0.41606000000000
C20    C      0.40121000000000     0.18487000000000     0.00717000000000
C20    C      0.59879000000000     0.81513000000000     0.50717000000000
C20    C      0.90121000000000     0.81513000000000     0.00717000000000
C20    C      0.09879000000000     0.18487000000000     0.50717000000000
C21    C      0.44277000000000     0.10880000000000     0.09598000000000
C21    C      0.55723000000000     0.89120000000000     0.59598000000000
C21    C      0.94277000000000     0.89120000000000     0.09598000000000
C21    C      0.05723000000000     0.10880000000000     0.59598000000000
H22    H      0.42759000000000     0.16845000000000     0.17274000000000
H22    H      0.57241000000000     0.83155000000000     0.67274000000000
H22    H      0.92759000000000     0.83155000000000     0.17274000000000
H22    H      0.07241000000000     0.16845000000000     0.67274000000000
C23    C      0.49385000000000     0.97745000000000     0.08505000000000
C23    C      0.50615000000000     0.02255000000000     0.58505000000000
C23    C      0.99385000000000     0.02255000000000     0.08505000000000
C23    C      0.00615000000000     0.97745000000000     0.58505000000000
H24    H      0.50966000000000     0.91599000000000     0.00861000000000
H24    H      0.49034000000000     0.08401000000000     0.50861000000000
H24    H      0.00966000000000     0.08401000000000     0.00861000000000
H24    H      0.99034000000000     0.91599000000000     0.50861000000000
C25    C      0.53178000000000     0.90217000000000     0.17245000000000
C25    C      0.46822000000000     0.09783000000000     0.67245000000000
C25    C      0.03178000000000     0.09783000000000     0.17245000000000
C25    C      0.96822000000000     0.90217000000000     0.67245000000000
O26    O      0.57833000000000     0.78016000000000     0.16291000000000
O26    O      0.42167000000000     0.21984000000000     0.66291000000000
O26    O      0.07833000000000     0.21984000000000     0.16291000000000
O26    O      0.92167000000000     0.78016000000000     0.66291000000000
O27    O      0.51189000000000     0.97562000000000     0.26674000000000
O27    O      0.48811000000000     0.02438000000000     0.76674000000000
O27    O      0.01189000000000     0.02438000000000     0.26674000000000
O27    O      0.98811000000000     0.97562000000000     0.76674000000000
H28    H      0.54184000000000     0.91153000000000     0.31395000000000
H28    H      0.45816000000000     0.08847000000000     0.81395000000000
H28    H      0.04184000000000     0.08847000000000     0.31395000000000
H28    H      0.95816000000000     0.91153000000000     0.81395000000000
