data_default
_cell_volume           524.584397
_symmetry_space_group_name_H-M 'P 1'
_symmetry_Int_Tables_number 1
loop_
_symmetry_equiv_pos_site_id
_symmetry_equiv_pos_as_xyz
1 x,y,z
_cell_length_a        13.7432000000
_cell_length_b        11.4339000000
_cell_length_c        14.0582000000
_cell_angle_alpha        43.5093
_cell_angle_beta        30.7665
_cell_angle_gamma        27.9609
_cell_formula_units_Z 1
loop_
_atom_site_label
_atom_site_type_symbol
_atom_site_fract_x
_atom_site_fract_y
_atom_site_fract_z
C1     C      0.53476000000000     0.68214000000000     0.08447000000000
C1     C      0.46524000000000     0.31786000000000     0.91553000000000
C2     C      0.12386000000000     0.07929000000000     0.25973000000000
C2     C      0.87614000000000     0.92071000000000     0.74027000000000
C3     C      0.26419000000000     0.00758000000000     0.27123000000000
C3     C      0.73581000000000     0.99242000000000     0.72877000000000
C4     C      0.54499000000000     0.77506000000000     0.18255000000000
C4     C      0.45501000000000     0.22494000000000     0.81745000000000
C5     C      0.67889000000000     0.61050000000000     0.09058000000000
C5     C      0.32111000000000     0.38950000000000     0.90942000000000
H1     H      0.62467000000000     0.55673000000000     0.02158000000000
H1     H      0.37533000000000     0.44327000000000     0.97842000000000
C6     C      0.11921000000000     0.16901000000000     0.37533000000000
C6     C      0.88079000000000     0.83099000000000     0.62467000000000
H2     H      0.65568000000000     0.72050000000000     0.18890000000000
H2     H      0.34432000000000     0.27950000000000     0.81110000000000
H3     H      0.89275000000000     0.42073000000000     0.03007000000000
H3     H      0.10725000000000     0.57927000000000     0.96993000000000
C7     C      0.84088000000000     0.39939000000000     0.46038000000000
C7     C      0.15912000000000     0.60061000000000     0.53962000000000
C8     C      0.71381000000000     0.46262000000000     0.44209000000000
C8     C      0.28619000000000     0.53738000000000     0.55791000000000
H4     H      0.21689000000000     0.11726000000000     0.39350000000000
H4     H      0.78311000000000     0.88274000000000     0.60650000000000
H5     H      0.72170000000000     0.53331000000000     0.53960000000000
H5     H      0.27830000000000     0.46669000000000     0.46040000000000
H6     H      0.49574000000000     0.64421000000000     0.50602000000000
H6     H      0.50426000000000     0.35579000000000     0.49398000000000
N1     N      0.85324000000000     0.30430000000000     0.34355000000000
N1     N      0.14676000000000     0.69570000000000     0.65645000000000
N2     N      0.26716000000000     0.91675000000000     0.16218000000000
N2     N      0.73284000000000     0.08325000000000     0.83782000000000
H7     H      0.15046000000000     0.96186000000000     0.17478000000000
H7     H      0.84954000000000     0.03814000000000     0.82522000000000
C1     C      0.86618000000000     0.88931000000000     0.25066000000000
C1     C      0.13382000000000     0.11069000000000     0.74934000000000
H1     H      0.93465000000000     0.71508000000000     0.28098000000000
H1     H      0.06535000000000     0.28492000000000     0.71902000000000
C2     C      0.68595000000000     0.07598000000000     0.22785000000000
C2     C      0.31405000000000     0.92402000000000     0.77215000000000
H2     H      0.62028000000000     0.24911000000000     0.19425000000000
H2     H      0.37972000000000     0.75089000000000     0.80575000000000
C3     C      0.58116000000000     0.06470000000000     0.23561000000000
C3     C      0.41884000000000     0.93530000000000     0.76439000000000
C4     C      0.98843000000000     0.88479000000000     0.23815000000000
C4     C      0.01157000000000     0.11521000000000     0.76185000000000
O1     O      0.16886000000000     0.68978000000000     0.24623000000000
O1     O      0.83114000000000     0.31022000000000     0.75377000000000
O2     O      0.65373000000000     0.87767000000000     0.25777000000000
O2     O      0.34627000000000     0.12233000000000     0.74223000000000
O3     O      0.92060000000000     0.07144000000000     0.21005000000000
O3     O      0.07940000000000     0.92856000000000     0.78995000000000
O4     O      0.40161000000000     0.27204000000000     0.21674000000000
O4     O      0.59839000000000     0.72796000000000     0.78326000000000
H3     H      0.35473000000000     0.40187000000000     0.22115000000000
H3     H      0.64527000000000     0.59813000000000     0.77885000000000
