data_default
_cell_volume          1116.526530
_symmetry_space_group_name_H-M 'P 1'
_symmetry_Int_Tables_number 1
loop_
_symmetry_equiv_pos_site_id
_symmetry_equiv_pos_as_xyz
1 x,y,z
_cell_length_a         4.1567000000
_cell_length_b        23.2078000000
_cell_length_c        11.6143000000
_cell_angle_alpha        90.0000
_cell_angle_beta        94.7698
_cell_angle_gamma        90.0000
_cell_formula_units_Z 1
loop_
_atom_site_label
_atom_site_type_symbol
_atom_site_fract_x
_atom_site_fract_y
_atom_site_fract_z
O1     O      0.17588400000000     0.33968200000000     0.81880700000000
O1     O      0.67588400000000     0.83968200000000     0.81880700000000
O1     O      0.17588400000000     0.66031800000000     0.31880700000000
O1     O      0.67588400000000     0.16031800000000     0.31880700000000
O2     O      0.01858680000000     0.41204700000000     0.93518900000000
O2     O      0.51858680000000     0.91204700000000     0.93518900000000
O2     O      0.01858680000000     0.58795300000000     0.43518900000000
O2     O      0.51858680000000     0.08795300000000     0.43518900000000
O3     O      0.05067810000000     0.16716700000000     0.08270000000000
O3     O      0.55067810000000     0.66716700000000     0.08270000000000
O3     O      0.05067810000000     0.83283300000000     0.58270000000000
O3     O      0.55067810000000     0.33283300000000     0.58270000000000
O4     O      0.77410500000000     0.23746700000000     0.16325000000000
O4     O      0.27410500000000     0.73746700000000     0.16325000000000
O4     O      0.77410500000000     0.76253300000000     0.66325000000000
O4     O      0.27410500000000     0.26253300000000     0.66325000000000
H1     H      0.74507200000000     0.20699100000000     0.20482000000000
H1     H      0.24507200000000     0.70699100000000     0.20482000000000
H1     H      0.74507200000000     0.79300900000000     0.70482000000000
H1     H      0.24507200000000     0.29300900000000     0.70482000000000
C1     C      0.06230160000000     0.36057000000000     0.90645200000000
C1     C      0.56230160000000     0.86057000000000     0.90645200000000
C1     C      0.06230160000000     0.63943000000000     0.40645200000000
C1     C      0.56230160000000     0.13943000000000     0.40645200000000
C2     C      0.96230030000000     0.31674200000000     0.99670800000000
C2     C      0.46230030000000     0.81674200000000     0.99670800000000
C2     C      0.96230030000000     0.68325800000000     0.49670800000000
C2     C      0.46230030000000     0.18325800000000     0.49670800000000
C3     C      0.05424940000000     0.26114700000000     0.99812100000000
C3     C      0.55424940000000     0.76114700000000     0.99812100000000
C3     C      0.05424940000000     0.73885300000000     0.49812100000000
C3     C      0.55424940000000     0.23885300000000     0.49812100000000
C4     C      0.96742190000000     0.21781000000000     0.08115000000000
C4     C      0.46742190000000     0.71781000000000     0.08115000000000
C4     C      0.96742190000000     0.78219000000000     0.58115000000000
C4     C      0.46742190000000     0.28219000000000     0.58115000000000
H2     H      0.82907600000000     0.33171900000000     0.05678000000000
H2     H      0.32907600000000     0.83171900000000     0.05678000000000
H2     H      0.82907600000000     0.66828100000000     0.55678000000000
H2     H      0.32907600000000     0.16828100000000     0.55678000000000
H3     H      0.18583000000000     0.24736600000000     0.93689400000000
H3     H      0.68583000000000     0.74736600000000     0.93689400000000
H3     H      0.18583000000000     0.75263400000000     0.43689400000000
H3     H      0.68583000000000     0.25263400000000     0.43689400000000
C5     C      0.34205200000000     0.63347300000000     0.73090400000000
C5     C      0.84205200000000     0.13347300000000     0.73090400000000
C5     C      0.34205200000000     0.36652700000000     0.23090400000000
C5     C      0.84205200000000     0.86652700000000     0.23090400000000
C6     C      0.38453700000000     0.57305400000000     0.71893100000000
C6     C      0.88453700000000     0.07305400000000     0.71893100000000
C6     C      0.38453700000000     0.42694600000000     0.21893100000000
C6     C      0.88453700000000     0.92694600000000     0.21893100000000
C7     C      0.24998100000000     0.53785500000000     0.80286900000000
C7     C      0.74998100000000     0.03785500000000     0.80286900000000
C7     C      0.24998100000000     0.46214500000000     0.30286900000000
C7     C      0.74998100000000     0.96214500000000     0.30286900000000
C8     C      0.05529800000000     0.61336300000000     0.89863500000000
C8     C      0.55529800000000     0.11336300000000     0.89863500000000
C8     C      0.05529800000000     0.38663700000000     0.39863500000000
C8     C      0.55529800000000     0.88663700000000     0.39863500000000
C9     C      0.17751100000000     0.65342700000000     0.82075200000000
C9     C      0.67751100000000     0.15342700000000     0.82075200000000
C9     C      0.17751100000000     0.34657300000000     0.32075200000000
C9     C      0.67751100000000     0.84657300000000     0.32075200000000
C10    C      0.43927100000000     0.45343000000000     0.71199200000000
C10    C      0.93927100000000     0.95343000000000     0.71199200000000
C10    C      0.43927100000000     0.54657000000000     0.21199200000000
C10    C      0.93927100000000     0.04657000000000     0.21199200000000
C11    C      0.57473700000000     0.48653100000000     0.62796100000000
C11    C      0.07473700000000     0.98653100000000     0.62796100000000
C11    C      0.57473700000000     0.51346900000000     0.12796100000000
C11    C      0.07473700000000     0.01346900000000     0.12796100000000
C12    C      0.54748600000000     0.54602600000000     0.63142800000000
C12    C      0.04748600000000     0.04602600000000     0.63142800000000
C12    C      0.54748600000000     0.45397400000000     0.13142800000000
C12    C      0.04748600000000     0.95397400000000     0.13142800000000
H4     H      0.43014000000000     0.66003100000000     0.67524000000000
H4     H      0.93014000000000     0.16003100000000     0.67524000000000
H4     H      0.43014000000000     0.33996900000000     0.17524000000000
H4     H      0.93014000000000     0.83996900000000     0.17524000000000
H5     H      0.93680750000000     0.62724800000000     0.96343500000000
H5     H      0.43680750000000     0.12724800000000     0.96343500000000
H5     H      0.93680750000000     0.37275200000000     0.46343500000000
H5     H      0.43680750000000     0.87275200000000     0.46343500000000
H6     H      0.14289700000000     0.69492500000000     0.83207700000000
H6     H      0.64289700000000     0.19492500000000     0.83207700000000
H6     H      0.14289700000000     0.30507500000000     0.33207700000000
H6     H      0.64289700000000     0.80507500000000     0.33207700000000
H7     H      0.45061300000000     0.41109200000000     0.71411900000000
H7     H      0.95061300000000     0.91109200000000     0.71411900000000
H7     H      0.45061300000000     0.58890800000000     0.21411900000000
H7     H      0.95061300000000     0.08890800000000     0.21411900000000
H8     H      0.68720000000000     0.46705500000000     0.56773600000000
H8     H      0.18720000000000     0.96705500000000     0.56773600000000
H8     H      0.68720000000000     0.53294500000000     0.06773600000000
H8     H      0.18720000000000     0.03294500000000     0.06773600000000
H9     H      0.64200600000000     0.56993200000000     0.57263200000000
H9     H      0.14200600000000     0.06993200000000     0.57263200000000
H9     H      0.64200600000000     0.43006800000000     0.07263200000000
H9     H      0.14200600000000     0.93006800000000     0.07263200000000
N1     N      0.08939620000000     0.55678300000000     0.89066700000000
N1     N      0.58939620000000     0.05678300000000     0.89066700000000
N1     N      0.08939620000000     0.44321700000000     0.39066700000000
N1     N      0.58939620000000     0.94321700000000     0.39066700000000
N2     N      0.28537000000000     0.47913200000000     0.79460000000000
N2     N      0.78537000000000     0.97913200000000     0.79460000000000
N2     N      0.28537000000000     0.52086800000000     0.29460000000000
N2     N      0.78537000000000     0.02086800000000     0.29460000000000
H10    H      0.19492500000000     0.45797000000000     0.85051400000000
H10    H      0.69492500000000     0.95797000000000     0.85051400000000
H10    H      0.19492500000000     0.54203000000000     0.35051400000000
H10    H      0.69492500000000     0.04203000000000     0.35051400000000
