data_default
_cell_volume          1165.211846
_symmetry_space_group_name_H-M 'P 1'
_symmetry_Int_Tables_number 1
loop_
_symmetry_equiv_pos_site_id
_symmetry_equiv_pos_as_xyz
1 x,y,z
_cell_length_a        10.5774000000
_cell_length_b         9.5851000000
_cell_length_c        12.2599000000
_cell_angle_alpha        90.0000
_cell_angle_beta        69.6256
_cell_angle_gamma        90.0000
_cell_formula_units_Z 1
loop_
_atom_site_label
_atom_site_type_symbol
_atom_site_fract_x
_atom_site_fract_y
_atom_site_fract_z
C1     C      0.05915710000000     0.50618600000000     0.07205190000000
C1     C      0.55915710000000     0.00618600000000     0.07205190000000
C1     C      0.05915710000000     0.49381400000000     0.57205190000000
C1     C      0.55915710000000     0.99381400000000     0.57205190000000
C2     C      0.98573900000000     0.43307600000000     0.17334500000000
C2     C      0.48573900000000     0.93307600000000     0.17334500000000
C2     C      0.98573900000000     0.56692400000000     0.67334500000000
C2     C      0.48573900000000     0.06692400000000     0.67334500000000
C3     C      0.93548170000000     0.30195900000000     0.16484900000000
C3     C      0.43548170000000     0.80195900000000     0.16484900000000
C3     C      0.93548170000000     0.69804100000000     0.66484900000000
C3     C      0.43548170000000     0.19804100000000     0.66484900000000
C4     C      0.91168690000000     0.10843500000000     0.03463130000000
C4     C      0.41168690000000     0.60843500000000     0.03463130000000
C4     C      0.91168690000000     0.89156500000000     0.53463130000000
C4     C      0.41168690000000     0.39156500000000     0.53463130000000
C5     C      0.94203470000000     0.06441370000000     0.92148710000000
C5     C      0.44203470000000     0.56441370000000     0.92148710000000
C5     C      0.94203470000000     0.93558630000000     0.42148710000000
C5     C      0.44203470000000     0.43558630000000     0.42148710000000
C6     C      0.01797810000000     0.15186100000000     0.82806300000000
C6     C      0.51797810000000     0.65186100000000     0.82806300000000
C6     C      0.01797810000000     0.84813900000000     0.32806300000000
C6     C      0.51797810000000     0.34813900000000     0.32806300000000
C7     C      0.03271570000000     0.31860100000000     0.95372110000000
C7     C      0.53271570000000     0.81860100000000     0.95372110000000
C7     C      0.03271570000000     0.68139900000000     0.45372110000000
C7     C      0.53271570000000     0.18139900000000     0.45372110000000
C8     C      0.95806850000000     0.24176400000000     0.05430180000000
C8     C      0.45806850000000     0.74176400000000     0.05430180000000
C8     C      0.95806850000000     0.75823600000000     0.55430180000000
C8     C      0.45806850000000     0.25823600000000     0.55430180000000
H1     H      0.13266400000000     0.49906600000000     0.89353000000000
H1     H      0.63266400000000     0.99906600000000     0.89353000000000
H1     H      0.13266400000000     0.50093400000000     0.39353000000000
H1     H      0.63266400000000     0.00093400000000     0.39353000000000
H2     H      0.10116600000000     0.60885500000000     0.07250130000000
H2     H      0.60116600000000     0.10885500000000     0.07250130000000
H2     H      0.10116600000000     0.39114500000000     0.57250130000000
H2     H      0.60116600000000     0.89114500000000     0.57250130000000
H3     H      0.96972530000000     0.48105000000000     0.25680300000000
H3     H      0.46972530000000     0.98105000000000     0.25680300000000
H3     H      0.96972530000000     0.51895000000000     0.75680300000000
H3     H      0.46972530000000     0.01895000000000     0.75680300000000
H4     H      0.87860500000000     0.24458200000000     0.24260700000000
H4     H      0.37860500000000     0.74458200000000     0.24260700000000
H4     H      0.87860500000000     0.75541800000000     0.74260700000000
H4     H      0.37860500000000     0.25541800000000     0.74260700000000
H5     H      0.85403200000000     0.04417810000000     0.10760400000000
H5     H      0.35403200000000     0.54417810000000     0.10760400000000
H5     H      0.85403200000000     0.95582190000000     0.60760400000000
H5     H      0.35403200000000     0.45582190000000     0.60760400000000
H6     H      0.90877010000000     0.96362910000000     0.90242370000000
H6     H      0.40877010000000     0.46362910000000     0.90242370000000
H6     H      0.90877010000000     0.03637090000000     0.40242370000000
H6     H      0.40877010000000     0.53637090000000     0.40242370000000
H7     H      0.04208650000000     0.11765500000000     0.73891300000000
H7     H      0.54208650000000     0.61765500000000     0.73891300000000
H7     H      0.04208650000000     0.88234500000000     0.23891300000000
H7     H      0.54208650000000     0.38234500000000     0.23891300000000
N1     N      0.07958520000000     0.44801400000000     0.96849170000000
N1     N      0.57958520000000     0.94801400000000     0.96849170000000
N1     N      0.07958520000000     0.55198600000000     0.46849170000000
N1     N      0.57958520000000     0.05198600000000     0.46849170000000
N2     N      0.06328450000000     0.27710600000000     0.84248100000000
N2     N      0.56328450000000     0.77710600000000     0.84248100000000
N2     N      0.06328450000000     0.72289400000000     0.34248100000000
N2     N      0.56328450000000     0.22289400000000     0.34248100000000
C9     C      0.21830800000000     0.72356600000000     0.81910400000000
C9     C      0.71830800000000     0.22356600000000     0.81910400000000
C9     C      0.21830800000000     0.27643400000000     0.31910400000000
C9     C      0.71830800000000     0.77643400000000     0.31910400000000
C10    C      0.22384700000000     0.83686500000000     0.72899200000000
C10    C      0.72384700000000     0.33686500000000     0.72899200000000
C10    C      0.22384700000000     0.16313500000000     0.22899200000000
C10    C      0.72384700000000     0.66313500000000     0.22899200000000
C11    C      0.25686700000000     0.91075600000000     0.52613100000000
C11    C      0.75686700000000     0.41075600000000     0.52613100000000
C11    C      0.25686700000000     0.08924400000000     0.02613100000000
C11    C      0.75686700000000     0.58924400000000     0.02613100000000
C12    C      0.24923300000000     0.80775300000000     0.61589300000000
C12    C      0.74923300000000     0.30775300000000     0.61589300000000
C12    C      0.24923300000000     0.19224700000000     0.11589300000000
C12    C      0.74923300000000     0.69224700000000     0.11589300000000
H8     H      0.23227200000000     0.09679000000000     0.49801400000000
H8     H      0.73227200000000     0.59679000000000     0.49801400000000
H8     H      0.23227200000000     0.90321000000000     0.99801400000000
H8     H      0.73227200000000     0.40321000000000     0.99801400000000
H9     H      0.20710600000000     0.94377800000000     0.75983200000000
H9     H      0.70710600000000     0.44377800000000     0.75983200000000
H9     H      0.20710600000000     0.05622200000000     0.25983200000000
H9     H      0.70710600000000     0.55622200000000     0.25983200000000
H10    H      0.26572000000000     0.70020400000000     0.58791000000000
H10    H      0.76572000000000     0.20020400000000     0.58791000000000
H10    H      0.26572000000000     0.29979600000000     0.08791000000000
H10    H      0.76572000000000     0.79979600000000     0.08791000000000
O1     O      0.27834800000000     0.88569000000000     0.42288100000000
O1     O      0.77834800000000     0.38569000000000     0.42288100000000
O1     O      0.27834800000000     0.11431000000000     0.92288100000000
O1     O      0.77834800000000     0.61431000000000     0.92288100000000
O2     O      0.19938100000000     0.77136400000000     0.91966500000000
O2     O      0.69938100000000     0.27136400000000     0.91966500000000
O2     O      0.19938100000000     0.22863600000000     0.41966500000000
O2     O      0.69938100000000     0.72863600000000     0.41966500000000
O3     O      0.23365500000000     0.59989800000000     0.78123300000000
O3     O      0.73365500000000     0.09989800000000     0.78123300000000
O3     O      0.23365500000000     0.40010200000000     0.28123300000000
O3     O      0.73365500000000     0.90010200000000     0.28123300000000
O4     O      0.23498500000000     0.04616000000000     0.56562100000000
O4     O      0.73498500000000     0.54616000000000     0.56562100000000
O4     O      0.23498500000000     0.95384000000000     0.06562100000000
O4     O      0.73498500000000     0.45384000000000     0.06562100000000
