data_default
_cell_volume          1155.409594
_symmetry_space_group_name_H-M 'P 1'
_symmetry_Int_Tables_number 1
loop_
_symmetry_equiv_pos_site_id
_symmetry_equiv_pos_as_xyz
1 x,y,z
_cell_length_a        23.6332000000
_cell_length_b         3.9451000000
_cell_length_c        12.3924000000
_cell_angle_alpha        90.0000
_cell_angle_beta        90.0000
_cell_angle_gamma        90.0000
_cell_formula_units_Z 1
loop_
_atom_site_label
_atom_site_type_symbol
_atom_site_fract_x
_atom_site_fract_y
_atom_site_fract_z
N1     N      0.95679000000000     0.80063000000000     0.15168000000000
N1     N      0.04321000000000     0.19937000000000     0.65168000000000
N1     N      0.45679000000000     0.19937000000000     0.15168000000000
N1     N      0.54321000000000     0.80063000000000     0.65168000000000
H1     H      0.93607000000000     0.90294000000000     0.20986000000000
H1     H      0.06393000000000     0.09706000000000     0.70986000000000
H1     H      0.43607000000000     0.09706000000000     0.20986000000000
H1     H      0.56393000000000     0.90294000000000     0.70986000000000
C1     C      0.01913000000000     0.53261000000000     0.98235000000000
C1     C      0.98087000000000     0.46739000000000     0.48235000000000
C1     C      0.51913000000000     0.46739000000000     0.98235000000000
C1     C      0.48087000000000     0.53261000000000     0.48235000000000
H3     H      0.04161000000000     0.43471000000000     0.91862000000000
H3     H      0.95839000000000     0.56529000000000     0.41862000000000
H3     H      0.54161000000000     0.56529000000000     0.91862000000000
H3     H      0.45839000000000     0.43471000000000     0.41862000000000
C2     C      0.04650000000000     0.70294000000000     0.06768000000000
C2     C      0.95350000000000     0.29706000000000     0.56768000000000
C2     C      0.54650000000000     0.29706000000000     0.06768000000000
C2     C      0.45350000000000     0.70294000000000     0.56768000000000
C3     C      0.03682000000000     0.00307000000000     0.23621000000000
C3     C      0.96318000000000     0.99693000000000     0.73621000000000
C3     C      0.53682000000000     0.99693000000000     0.23621000000000
C3     C      0.46318000000000     0.00307000000000     0.73621000000000
C4     C      0.92900000000000     0.63376000000000     0.07222000000000
C4     C      0.07100000000000     0.36624000000000     0.57222000000000
C4     C      0.42900000000000     0.36624000000000     0.07222000000000
C4     C      0.57100000000000     0.63376000000000     0.57222000000000
H5     H      0.88587000000000     0.60910000000000     0.07493000000000
H5     H      0.11413000000000     0.39090000000000     0.57493000000000
H5     H      0.38587000000000     0.39090000000000     0.07493000000000
H5     H      0.61413000000000     0.60910000000000     0.57493000000000
C6     C      0.01321000000000     0.83582000000000     0.15266000000000
C6     C      0.98679000000000     0.16418000000000     0.65266000000000
C6     C      0.51321000000000     0.16418000000000     0.15266000000000
C6     C      0.48679000000000     0.83582000000000     0.65266000000000
C7     C      0.09351000000000     0.04758000000000     0.24325000000000
C7     C      0.90649000000000     0.95242000000000     0.74325000000000
C7     C      0.59351000000000     0.95242000000000     0.24325000000000
C7     C      0.40649000000000     0.04758000000000     0.74325000000000
H6     H      0.11036000000000     0.17343000000000     0.30779000000000
H6     H      0.88964000000000     0.82657000000000     0.80779000000000
H6     H      0.61036000000000     0.82657000000000     0.30779000000000
H6     H      0.38964000000000     0.17343000000000     0.80779000000000
C8     C      0.10539000000000     0.74841000000000     0.07313000000000
C8     C      0.89461000000000     0.25159000000000     0.57313000000000
C8     C      0.60539000000000     0.25159000000000     0.07313000000000
C8     C      0.39461000000000     0.74841000000000     0.57313000000000
H7     H      0.13115000000000     0.65720000000000     0.01365000000000
H7     H      0.86885000000000     0.34280000000000     0.51365000000000
H7     H      0.63115000000000     0.34280000000000     0.01365000000000
H7     H      0.36885000000000     0.65720000000000     0.51365000000000
C9     C      0.95997000000000     0.49620000000000     0.98586000000000
C9     C      0.04003000000000     0.50380000000000     0.48586000000000
C9     C      0.45997000000000     0.50380000000000     0.98586000000000
C9     C      0.54003000000000     0.49620000000000     0.48586000000000
H8     H      0.93934000000000     0.37008000000000     0.92569000000000
H8     H      0.06066000000000     0.62992000000000     0.42569000000000
H8     H      0.43934000000000     0.62992000000000     0.92569000000000
H8     H      0.56066000000000     0.37008000000000     0.42569000000000
C13    C      0.12886000000000     0.91997000000000     0.16172000000000
C13    C      0.87114000000000     0.08003000000000     0.66172000000000
C13    C      0.62886000000000     0.08003000000000     0.16172000000000
C13    C      0.37114000000000     0.91997000000000     0.66172000000000
H11    H      0.17164000000000     0.95166000000000     0.16706000000000
H11    H      0.82836000000000     0.04834000000000     0.66706000000000
H11    H      0.67164000000000     0.04834000000000     0.16706000000000
H11    H      0.32836000000000     0.95166000000000     0.66706000000000
O1     O      0.67694000000000     0.33583000000000     0.41209000000000
O1     O      0.32306000000000     0.66417000000000     0.91209000000000
O1     O      0.17694000000000     0.66417000000000     0.41209000000000
O1     O      0.82306000000000     0.33583000000000     0.91209000000000
O2     O      0.88054000000000     0.12523000000000     0.30255000000000
O2     O      0.11946000000000     0.87477000000000     0.80255000000000
O2     O      0.38054000000000     0.87477000000000     0.30255000000000
O2     O      0.61946000000000     0.12523000000000     0.80255000000000
O3     O      0.81531000000000     0.03345000000000     0.18722000000000
O3     O      0.18469000000000     0.96655000000000     0.68722000000000
O3     O      0.31531000000000     0.96655000000000     0.18722000000000
O3     O      0.68469000000000     0.03345000000000     0.68722000000000
O4     O      0.74426000000000     0.44434000000000     0.52875000000000
O4     O      0.25574000000000     0.55566000000000     0.02875000000000
O4     O      0.24426000000000     0.55566000000000     0.52875000000000
O4     O      0.75574000000000     0.44434000000000     0.02875000000000
H2     H      0.72110000000000     0.31108000000000     0.57835000000000
H2     H      0.27890000000000     0.68892000000000     0.07835000000000
H2     H      0.22110000000000     0.68892000000000     0.57835000000000
H2     H      0.77890000000000     0.31108000000000     0.07835000000000
C5     C      0.83361000000000     0.99516000000000     0.28108000000000
C5     C      0.16639000000000     0.00484000000000     0.78108000000000
C5     C      0.33361000000000     0.00484000000000     0.28108000000000
C5     C      0.66639000000000     0.99516000000000     0.78108000000000
C10    C      0.80392000000000     0.82032000000000     0.36109000000000
C10    C      0.19608000000000     0.17968000000000     0.86109000000000
C10    C      0.30392000000000     0.17968000000000     0.36109000000000
C10    C      0.69608000000000     0.82032000000000     0.86109000000000
H9     H      0.82268000000000     0.81431000000000     0.43493000000000
H9     H      0.17732000000000     0.18569000000000     0.93493000000000
H9     H      0.32268000000000     0.18569000000000     0.43493000000000
H9     H      0.67732000000000     0.81431000000000     0.93493000000000
C11    C      0.72309000000000     0.47960000000000     0.42902000000000
C11    C      0.27691000000000     0.52040000000000     0.92902000000000
C11    C      0.22309000000000     0.52040000000000     0.42902000000000
C11    C      0.77691000000000     0.47960000000000     0.92902000000000
C12    C      0.75131000000000     0.65645000000000     0.34714000000000
C12    C      0.24869000000000     0.34355000000000     0.84714000000000
C12    C      0.25131000000000     0.34355000000000     0.34714000000000
C12    C      0.74869000000000     0.65645000000000     0.84714000000000
H10    H      0.73231000000000     0.66138000000000     0.27317000000000
H10    H      0.26769000000000     0.33862000000000     0.77317000000000
H10    H      0.23231000000000     0.33862000000000     0.27317000000000
H10    H      0.76769000000000     0.66138000000000     0.77317000000000
