data_default
_cell_volume           561.409903
_symmetry_space_group_name_H-M 'P 1'
_symmetry_Int_Tables_number 1
loop_
_symmetry_equiv_pos_site_id
_symmetry_equiv_pos_as_xyz
1 x,y,z
_cell_length_a         3.7790000000
_cell_length_b        12.0110000000
_cell_length_c        12.3820000000
_cell_angle_alpha        90.0000
_cell_angle_beta        92.6560
_cell_angle_gamma        90.0000
_cell_formula_units_Z 1
loop_
_atom_site_label
_atom_site_type_symbol
_atom_site_fract_x
_atom_site_fract_y
_atom_site_fract_z
N1     N      0.10278000000000     0.90580000000000     0.33704000000000
N1     N      0.10278000000000     0.09420000000000     0.83704000000000
C2     C      0.10639000000000     0.79560000000000     0.33770000000000
C2     C      0.10639000000000     0.20440000000000     0.83770000000000
H3     H      0.20574000000000     0.75699000000000     0.26744000000000
H3     H      0.20574000000000     0.24301000000000     0.76744000000000
C4     C      0.98879000000000     0.73017000000000     0.42449000000000
C4     C      0.98879000000000     0.26983000000000     0.92449000000000
H5     H      0.00163000000000     0.64098000000000     0.41944000000000
H5     H      0.00163000000000     0.35902000000000     0.91944000000000
C6     C      0.86207000000000     0.78295000000000     0.51304000000000
C6     C      0.86207000000000     0.21705000000000     0.01304000000000
H7     H      0.77177000000000     0.73696000000000     0.58029000000000
H7     H      0.77177000000000     0.26304000000000     0.08029000000000
C8     C      0.85057000000000     0.90190000000000     0.51593000000000
C8     C      0.85057000000000     0.09810000000000     0.01593000000000
C9     C      0.97677000000000     0.95743000000000     0.42386000000000
C9     C      0.97677000000000     0.04257000000000     0.92386000000000
N10    N      0.97355000000000     0.07095000000000     0.42285000000000
N10    N      0.97355000000000     0.92905000000000     0.92285000000000
H11    H      0.06522000000000     0.10724000000000     0.35632000000000
H11    H      0.06522000000000     0.89276000000000     0.85632000000000
C12    C      0.85923000000000     0.13356000000000     0.50319000000000
C12    C      0.85923000000000     0.86644000000000     0.00319000000000
H13    H      0.87262000000000     0.22207000000000     0.49350000000000
H13    H      0.87262000000000     0.77793000000000     0.99350000000000
C14    C      0.73038000000000     0.08190000000000     0.59499000000000
C14    C      0.73038000000000     0.91810000000000     0.09499000000000
H15    H      0.63775000000000     0.13277000000000     0.65886000000000
H15    H      0.63775000000000     0.86723000000000     0.15886000000000
C16    C      0.72754000000000     0.96712000000000     0.60141000000000
C16    C      0.72754000000000     0.03288000000000     0.10141000000000
H17    H      0.63161000000000     0.92674000000000     0.67161000000000
H17    H      0.63161000000000     0.07326000000000     0.17161000000000
O18    O      0.21569000000000     0.20183000000000     0.26974000000000
O18    O      0.21569000000000     0.79817000000000     0.76974000000000
O19    O      0.42433000000000     0.31748000000000     0.39676000000000
O19    O      0.42433000000000     0.68252000000000     0.89676000000000
C20    C      0.33407000000000     0.29285000000000     0.30224000000000
C20    C      0.33407000000000     0.70715000000000     0.80224000000000
C21    C      0.37196000000000     0.38259000000000     0.21555000000000
C21    C      0.37196000000000     0.61741000000000     0.71555000000000
H22    H      0.28840000000000     0.35763000000000     0.13579000000000
H22    H      0.28840000000000     0.64237000000000     0.63579000000000
C23    C      0.49695000000000     0.48447000000000     0.23132000000000
C23    C      0.49695000000000     0.51553000000000     0.73132000000000
H24    H      0.58282000000000     0.51084000000000     0.31076000000000
H24    H      0.58282000000000     0.48916000000000     0.81076000000000
C25    C      0.53053000000000     0.56713000000000     0.14550000000000
C25    C      0.53053000000000     0.43287000000000     0.64550000000000
O26    O      0.64529000000000     0.66017000000000     0.15949000000000
O26    O      0.64529000000000     0.33983000000000     0.65949000000000
O27    O      0.42366000000000     0.53375000000000     0.04770000000000
O27    O      0.42366000000000     0.46625000000000     0.54770000000000
H28    H      0.46066000000000     0.59735000000000     0.00185000000000
H28    H      0.46066000000000     0.40265000000000     0.50185000000000
