data_default
_cell_volume           553.134181
_symmetry_space_group_name_H-M 'P 1'
_symmetry_Int_Tables_number 1
loop_
_symmetry_equiv_pos_site_id
_symmetry_equiv_pos_as_xyz
1 x,y,z
_cell_length_a         3.7220000000
_cell_length_b        10.8380000000
_cell_length_c        14.0637000000
_cell_angle_alpha        79.9110
_cell_angle_beta        83.5110
_cell_angle_gamma        84.3070
_cell_formula_units_Z 1
loop_
_atom_site_label
_atom_site_type_symbol
_atom_site_fract_x
_atom_site_fract_y
_atom_site_fract_z
N1     N      0.13320000000000     0.41719000000000     0.39667000000000
N1     N      0.86680000000000     0.58281000000000     0.60333000000000
N2     N      0.24136000000000     0.45943000000000     0.23139000000000
N2     N      0.75864000000000     0.54057000000000     0.76861000000000
C1     C      0.41807000000000     0.16759000000000     0.39825000000000
C1     C      0.58193000000000     0.83241000000000     0.60175000000000
C2     C      0.40537000000000     0.25234000000000     0.30906000000000
C2     C      0.59463000000000     0.74766000000000     0.69094000000000
C3     C      0.25885000000000     0.37503000000000     0.31511000000000
C3     C      0.74115000000000     0.62497000000000     0.68489000000000
C4     C      0.14886000000000     0.33716000000000     0.47703000000000
C4     C      0.85114000000000     0.66284000000000     0.52297000000000
C5     C      0.29019000000000     0.21002000000000     0.48183000000000
C5     C      0.70981000000000     0.78998000000000     0.51817000000000
C6     C      0.35552000000000     0.43146000000000     0.14479000000000
C6     C      0.64448000000000     0.56854000000000     0.85521000000000
C7     C      0.50295000000000     0.31133000000000     0.13468000000000
C7     C      0.49705000000000     0.68867000000000     0.86532000000000
C8     C      0.52741000000000     0.22218000000000     0.21682000000000
C8     C      0.47259000000000     0.77782000000000     0.78318000000000
O1     O      0.69732000000000     0.65554000000000     0.21229000000000
O1     O      0.30268000000000     0.34446000000000     0.78771000000000
O6     O      0.32944000000000     0.78821000000000     0.31967000000000
O6     O      0.67056000000000     0.21179000000000     0.68033000000000
O7     O      0.88376000000000     0.67027000000000     0.05533000000000
O7     O      0.11624000000000     0.32973000000000     0.94467000000000
O8     O      0.03992000000000     0.97557000000000     0.30048000000000
O8     O      0.96008000000000     0.02443000000000     0.69952000000000
C4     C      0.33371000000000     0.91382000000000     0.15949000000000
C4     C      0.66629000000000     0.08618000000000     0.84051000000000
C9     C      0.72303000000000     0.70941000000000     0.12584000000000
C9     C      0.27697000000000     0.29059000000000     0.87416000000000
C10    C      0.53177000000000     0.84136000000000     0.10298000000000
C10    C      0.46823000000000     0.15864000000000     0.89702000000000
C11    C      0.22398000000000     0.89315000000000     0.26682000000000
C11    C      0.77602000000000     0.10685000000000     0.73318000000000
H1     H      0.04650000000000     0.37212000000000     0.54271000000000
H1     H      0.95350000000000     0.62788000000000     0.45729000000000
H2     H      0.29351000000000     0.14994000000000     0.55106000000000
H2     H      0.70649000000000     0.85006000000000     0.44894000000000
H3     H      0.52768000000000     0.07202000000000     0.39832000000000
H3     H      0.47232000000000     0.92798000000000     0.60168000000000
H4     H      0.64074000000000     0.12828000000000     0.21091000000000
H4     H      0.35926000000000     0.87172000000000     0.78909000000000
H5     H      0.59424000000000     0.29032000000000     0.06380000000000
H5     H      0.40576000000000     0.70968000000000     0.93620000000000
H6     H      0.32798000000000     0.50571000000000     0.08397000000000
H6     H      0.67202000000000     0.49429000000000     0.91603000000000
H7     H      0.13471000000000     0.54629000000000     0.23877000000000
H7     H      0.86529000000000     0.45371000000000     0.76123000000000
H1     H      0.48092000000000     0.72972000000000     0.28029000000000
H1     H      0.51908000000000     0.27028000000000     0.71971000000000
H9     H      0.22515000000000     0.00497000000000     0.12621000000000
H9     H      0.77485000000000     0.99503000000000     0.87379000000000
H10    H      0.57040000000000     0.87940000000000     0.02675000000000
H10    H      0.42960000000000     0.12060000000000     0.97325000000000
