data_default
_cell_volume          1115.444119
_symmetry_space_group_name_H-M 'P 1'
_symmetry_Int_Tables_number 1
loop_
_symmetry_equiv_pos_site_id
_symmetry_equiv_pos_as_xyz
1 x,y,z
_cell_length_a        22.4053000000
_cell_length_b         3.8563000000
_cell_length_c        12.9100000000
_cell_angle_alpha        90.0000
_cell_angle_beta        90.0000
_cell_angle_gamma        90.0000
_cell_formula_units_Z 1
loop_
_atom_site_label
_atom_site_type_symbol
_atom_site_fract_x
_atom_site_fract_y
_atom_site_fract_z
C1     C      0.44843200000000     0.23699000000000     0.93505800000000
C1     C      0.55156800000000     0.76301000000000     0.43505800000000
C1     C      0.05156800000000     0.73699000000000     0.43505800000000
C1     C      0.94843200000000     0.26301000000000     0.93505800000000
C2     C      0.48168400000000     0.09393330000000     0.85361600000000
C2     C      0.51831600000000     0.90606670000000     0.35361600000000
C2     C      0.01831600000000     0.59393330000000     0.35361600000000
C2     C      0.98168400000000     0.40606670000000     0.85361600000000
C3     C      0.54271400000000     0.05413820000000     0.86398200000000
C3     C      0.45728600000000     0.94586180000000     0.36398200000000
C3     C      0.95728600000000     0.55413820000000     0.36398200000000
C3     C      0.04271400000000     0.44586180000000     0.86398200000000
C4     C      0.63365300000000     0.12919700000000     0.97613900000000
C4     C      0.36634700000000     0.87080300000000     0.47613900000000
C4     C      0.86634700000000     0.62919700000000     0.47613900000000
C4     C      0.13365300000000     0.37080300000000     0.97613900000000
C5     C      0.65497000000000     0.24145900000000     0.07036000000000
C5     C      0.34503000000000     0.75854100000000     0.57036000000000
C5     C      0.84503000000000     0.74145900000000     0.57036000000000
C5     C      0.15497000000000     0.25854100000000     0.07036000000000
C6     C      0.61500200000000     0.38110000000000     0.14495000000000
C6     C      0.38499800000000     0.61890000000000     0.64495000000000
C6     C      0.88499800000000     0.88110000000000     0.64495000000000
C6     C      0.11500200000000     0.11890000000000     0.14495000000000
C7     C      0.53653500000000     0.30100700000000     0.03725000000000
C7     C      0.46346500000000     0.69899300000000     0.53725000000000
C7     C      0.96346500000000     0.80100700000000     0.53725000000000
C7     C      0.03653500000000     0.19899300000000     0.03725000000000
C8     C      0.57151500000000     0.15714300000000     0.95652100000000
C8     C      0.42848500000000     0.84285700000000     0.45652100000000
C8     C      0.92848500000000     0.65714300000000     0.45652100000000
C8     C      0.07151500000000     0.34285700000000     0.95652100000000
H1     H      0.45307400000000     0.43779500000000     0.08212000000000
H1     H      0.54692600000000     0.56220500000000     0.58212000000000
H1     H      0.04692600000000     0.93779500000000     0.58212000000000
H1     H      0.95307400000000     0.06220500000000     0.08212000000000
H2     H      0.40068900000000     0.27512100000000     0.93206200000000
H2     H      0.59931100000000     0.72487900000000     0.43206200000000
H2     H      0.09931100000000     0.77512100000000     0.43206200000000
H2     H      0.90068900000000     0.22487900000000     0.93206200000000
H3     H      0.45875500000000     0.01713930000000     0.78369700000000
H3     H      0.54124500000000     0.98286070000000     0.28369700000000
H3     H      0.04124500000000     0.51713930000000     0.28369700000000
H3     H      0.95875500000000     0.48286070000000     0.78369700000000
H4     H      0.56881700000000     0.94387540000000     0.80149200000000
H4     H      0.43118300000000     0.05612460000000     0.30149200000000
H4     H      0.93118300000000     0.44387540000000     0.30149200000000
H4     H      0.06881700000000     0.55612460000000     0.80149200000000
H5     H      0.66298500000000     0.02165870000000     0.91775500000000
H5     H      0.33701500000000     0.97834130000000     0.41775500000000
H5     H      0.83701500000000     0.52165870000000     0.41775500000000
H5     H      0.16298500000000     0.47834130000000     0.91775500000000
H6     H      0.70197400000000     0.22506600000000     0.08864000000000
H6     H      0.29802600000000     0.77493400000000     0.58864000000000
H6     H      0.79802600000000     0.72506600000000     0.58864000000000
H6     H      0.20197400000000     0.27493400000000     0.08864000000000
H7     H      0.63158600000000     0.46988000000000     0.21917000000000
H7     H      0.36841400000000     0.53012000000000     0.71917000000000
H7     H      0.86841400000000     0.96988000000000     0.71917000000000
H7     H      0.13158600000000     0.03012000000000     0.21917000000000
N1     N      0.47625000000000     0.33298200000000     0.02177000000000
N1     N      0.52375000000000     0.66701800000000     0.52177000000000
N1     N      0.02375000000000     0.83298200000000     0.52177000000000
N1     N      0.97625000000000     0.16701800000000     0.02177000000000
N2     N      0.55666200000000     0.41209100000000     0.12985000000000
N2     N      0.44333800000000     0.58790900000000     0.62985000000000
N2     N      0.94333800000000     0.91209100000000     0.62985000000000
N2     N      0.05666200000000     0.08790900000000     0.12985000000000
C9     C      0.35988900000000     0.68796200000000     0.11936500000000
C9     C      0.64011100000000     0.31203800000000     0.61936500000000
C9     C      0.14011100000000     0.18796200000000     0.61936500000000
C9     C      0.85988900000000     0.81203800000000     0.11936500000000
C10    C      0.30071400000000     0.67303800000000     0.17901700000000
C10    C      0.69928600000000     0.32696200000000     0.67901700000000
C10    C      0.19928600000000     0.17303800000000     0.67901700000000
C10    C      0.80071400000000     0.82696200000000     0.17901700000000
C11    C      0.23863100000000     0.49990400000000     0.32721200000000
C11    C      0.76136900000000     0.50009600000000     0.82721200000000
C11    C      0.26136900000000     0.99990400000000     0.82721200000000
C11    C      0.73863100000000     0.00009600000000     0.32721200000000
C12    C      0.29541400000000     0.51667000000000     0.27176800000000
C12    C      0.70458600000000     0.48333000000000     0.77176800000000
C12    C      0.20458600000000     0.01667000000000     0.77176800000000
C12    C      0.79541400000000     0.98333000000000     0.27176800000000
H8     H      0.20527400000000     0.36625700000000     0.45294200000000
H8     H      0.79472600000000     0.63374300000000     0.95294200000000
H8     H      0.29472600000000     0.86625700000000     0.95294200000000
H8     H      0.70527400000000     0.13374300000000     0.45294200000000
H9     H      0.26137700000000     0.78267700000000     0.14234300000000
H9     H      0.73862300000000     0.21732300000000     0.64234300000000
H9     H      0.23862300000000     0.28267700000000     0.64234300000000
H9     H      0.76137700000000     0.71732300000000     0.14234300000000
H10    H      0.33494200000000     0.41217000000000     0.30824200000000
H10    H      0.66505800000000     0.58783000000000     0.80824200000000
H10    H      0.16505800000000     0.91217000000000     0.80824200000000
H10    H      0.83494200000000     0.08783000000000     0.30824200000000
O1     O      0.24572500000000     0.37115700000000     0.42616800000000
O1     O      0.75427500000000     0.62884300000000     0.92616800000000
O1     O      0.25427500000000     0.87115700000000     0.92616800000000
O1     O      0.74572500000000     0.12884300000000     0.42616800000000
O2     O      0.35409800000000     0.78373100000000     0.02627520000000
O2     O      0.64590200000000     0.21626900000000     0.52627520000000
O2     O      0.14590200000000     0.28373100000000     0.52627520000000
O2     O      0.85409800000000     0.71626900000000     0.02627520000000
O3     O      0.40560300000000     0.59955000000000     0.17013400000000
O3     O      0.59439700000000     0.40045000000000     0.67013400000000
O3     O      0.09439700000000     0.09955000000000     0.67013400000000
O3     O      0.90560300000000     0.90045000000000     0.17013400000000
O4     O      0.18871300000000     0.58021500000000     0.29636300000000
O4     O      0.81128700000000     0.41978500000000     0.79636300000000
O4     O      0.31128700000000     0.08021500000000     0.79636300000000
O4     O      0.68871300000000     0.91978500000000     0.29636300000000
