data_default
_cell_volume           545.675963
_symmetry_space_group_name_H-M 'P 1'
_symmetry_Int_Tables_number 1
loop_
_symmetry_equiv_pos_site_id
_symmetry_equiv_pos_as_xyz
1 x,y,z
_cell_length_a         3.7554000000
_cell_length_b        11.3824000000
_cell_length_c        15.0980000000
_cell_angle_alpha        90.0000
_cell_angle_beta       122.2720
_cell_angle_gamma        90.0000
_cell_formula_units_Z 1
loop_
_atom_site_label
_atom_site_type_symbol
_atom_site_fract_x
_atom_site_fract_y
_atom_site_fract_z
O1     O      0.72985900000000     0.69438100000000     0.93896700000000
O1     O      0.72985900000000     0.30561900000000     0.43896700000000
O2     O      0.60198800000000     0.78019800000000     0.78785500000000
O2     O      0.60198800000000     0.21980200000000     0.28785500000000
O3     O      0.35970000000000     0.10603000000000     0.06567000000000
O3     O      0.35970000000000     0.89397000000000     0.56567000000000
O4     O      0.33596000000000     0.02220000000000     0.19715000000000
O4     O      0.33596000000000     0.97780000000000     0.69715000000000
H1     H      0.45571000000000     0.09008000000000     0.22182000000000
H1     H      0.45571000000000     0.90992000000000     0.72182000000000
C1     C      0.73835600000000     0.77584800000000     0.88406500000000
C1     C      0.73835600000000     0.22415200000000     0.38406500000000
C2     C      0.94565000000000     0.89132100000000     0.94256600000000
C2     C      0.94565000000000     0.10867900000000     0.44256600000000
C3     C      0.05703000000000     0.91204300000000     0.04183000000000
C3     C      0.05703000000000     0.08795700000000     0.54183000000000
C4     C      0.25753000000000     0.02122000000000     0.09695000000000
C4     C      0.25753000000000     0.97878000000000     0.59695000000000
H2     H      0.99402400000000     0.95258200000000     0.90357700000000
H2     H      0.99402400000000     0.04741800000000     0.40357700000000
H3     H      0.00747000000000     0.85006300000000     0.07964000000000
H3     H      0.00747000000000     0.14993700000000     0.57964000000000
C5     C      0.04481000000000     0.22445900000000     0.77233100000000
C5     C      0.04481000000000     0.77554100000000     0.27233100000000
C6     C      0.97394600000000     0.34537300000000     0.74477400000000
C6     C      0.97394600000000     0.65462700000000     0.24477400000000
C7     C      0.25503000000000     0.42585100000000     0.82334100000000
C7     C      0.25503000000000     0.57414900000000     0.32334100000000
C8     C      0.62956000000000     0.28352000000000     0.94174800000000
C8     C      0.62956000000000     0.71648000000000     0.44174800000000
C9     C      0.37256000000000     0.19393400000000     0.87077300000000
C9     C      0.37256000000000     0.80606600000000     0.37077300000000
C10    C      0.89313300000000     0.58667800000000     0.70767600000000
C10    C      0.89313300000000     0.41332200000000     0.20767600000000
C11    C      0.61107000000000     0.51042100000000     0.62857600000000
C11    C      0.61107000000000     0.48957900000000     0.12857600000000
C12    C      0.65129100000000     0.39039700000000     0.64704000000000
C12    C      0.65129100000000     0.60960300000000     0.14704000000000
H4     H      0.86018300000000     0.16456300000000     0.72110300000000
H4     H      0.86018300000000     0.83543700000000     0.22110300000000
H5     H      0.86563000000000     0.26261200000000     0.01258000000000
H5     H      0.86563000000000     0.73738800000000     0.51258000000000
H6     H      0.43195000000000     0.11118100000000     0.89284300000000
H6     H      0.43195000000000     0.88881900000000     0.39284300000000
H7     H      0.88080600000000     0.67258400000000     0.69932200000000
H7     H      0.88080600000000     0.32741600000000     0.19932200000000
H8     H      0.38857000000000     0.54317300000000     0.56108200000000
H8     H      0.38857000000000     0.45682700000000     0.06108200000000
H9     H      0.45424800000000     0.33555500000000     0.59186700000000
H9     H      0.45424800000000     0.66444500000000     0.09186700000000
N1     N      0.57468000000000     0.39718200000000     0.91929700000000
N1     N      0.57468000000000     0.60281800000000     0.41929700000000
N2     N      0.19788000000000     0.54377900000000     0.80000200000000
N2     N      0.19788000000000     0.45622100000000     0.30000200000000
H10    H      0.38584000000000     0.59284000000000     0.85281000000000
H10    H      0.38584000000000     0.40716000000000     0.35281000000000
