data_default
_cell_volume           586.222565
_symmetry_space_group_name_H-M 'P 1'
_symmetry_Int_Tables_number 1
loop_
_symmetry_equiv_pos_site_id
_symmetry_equiv_pos_as_xyz
1 x,y,z
_cell_length_a         9.4400000000
_cell_length_b         5.1490000000
_cell_length_c        13.3490000000
_cell_angle_alpha       108.0770
_cell_angle_beta        76.4850
_cell_angle_gamma        82.9560
_cell_formula_units_Z 1
loop_
_atom_site_label
_atom_site_type_symbol
_atom_site_fract_x
_atom_site_fract_y
_atom_site_fract_z
H      H      0.43723000000000     0.93025000000000     0.14454000000000
H      H      0.56277000000000     0.06975000000000     0.85546000000000
C      C      0.35912000000000     0.79583000000000     0.13496000000000
C      C      0.64088000000000     0.20417000000000     0.86504000000000
C      C      0.29825000000000     0.74267000000000     0.04670000000000
C      C      0.70175000000000     0.25733000000000     0.95330000000000
H      H      0.33025000000000     0.83881000000000     0.98635000000000
H      H      0.66975000000000     0.16119000000000     0.01365000000000
C      C      0.19763000000000     0.56879000000000     0.03544000000000
C      C      0.80237000000000     0.43121000000000     0.96456000000000
H      H      0.15283000000000     0.53223000000000     0.96649000000000
H      H      0.84717000000000     0.46777000000000     0.03351000000000
C      C      0.15307000000000     0.43980000000000     0.11185000000000
C      C      0.84693000000000     0.56020000000000     0.88815000000000
H      H      0.07511000000000     0.30458000000000     0.10392000000000
H      H      0.92489000000000     0.69542000000000     0.89608000000000
C      C      0.21383000000000     0.49408000000000     0.19805000000000
C      C      0.78617000000000     0.50592000000000     0.80195000000000
C      C      0.31432000000000     0.66771000000000     0.20929000000000
C      C      0.68568000000000     0.33229000000000     0.79071000000000
O      O      0.35520000000000     0.68215000000000     0.30184000000000
O      O      0.64480000000000     0.31785000000000     0.69816000000000
B      B      0.27835000000000     0.51501000000000     0.34700000000000
B      B      0.72165000000000     0.48499000000000     0.65300000000000
O      O      0.19056000000000     0.39770000000000     0.28335000000000
O      O      0.80944000000000     0.60230000000000     0.71665000000000
C      C      0.28960000000000     0.46712000000000     0.45366000000000
C      C      0.71040000000000     0.53288000000000     0.54634000000000
H      H      0.36231000000000     0.57081000000000     0.49615000000000
H      H      0.63769000000000     0.42919000000000     0.50385000000000
C      C      0.21216000000000     0.30271000000000     0.49287000000000
C      C      0.78784000000000     0.69729000000000     0.50713000000000
H      H      0.14093000000000     0.20353000000000     0.44749000000000
H      H      0.85907000000000     0.79647000000000     0.55251000000000
C      C      0.21032000000000     0.23547000000000     0.59294000000000
C      C      0.78968000000000     0.76453000000000     0.40706000000000
C      C      0.29471000000000     0.34257000000000     0.66300000000000
C      C      0.70529000000000     0.65743000000000     0.33700000000000
H      H      0.36533000000000     0.48094000000000     0.64533000000000
H      H      0.63467000000000     0.51906000000000     0.35467000000000
C      C      0.28876000000000     0.27278000000000     0.75547000000000
C      C      0.71124000000000     0.72722000000000     0.24453000000000
H      H      0.35447000000000     0.35711000000000     0.80857000000000
H      H      0.64553000000000     0.64289000000000     0.19143000000000
C      C      0.19840000000000     0.09437000000000     0.78021000000000
C      C      0.80160000000000     0.90563000000000     0.21979000000000
H      H      0.19404000000000     0.04046000000000     0.85234000000000
H      H      0.80596000000000     0.95954000000000     0.14766000000000
C      C      0.11420000000000     0.98669000000000     0.71160000000000
C      C      0.88580000000000     0.01331000000000     0.28840000000000
H      H      0.04386000000000     0.84837000000000     0.72999000000000
H      H      0.95614000000000     0.15163000000000     0.27001000000000
C      C      0.12035000000000     0.05703000000000     0.61882000000000
C      C      0.87965000000000     0.94297000000000     0.38118000000000
H      H      0.05449000000000     0.97241000000000     0.56577000000000
H      H      0.94551000000000     0.02759000000000     0.43423000000000
