data_default
_cell_volume           567.755793
_symmetry_space_group_name_H-M 'P 1'
_symmetry_Int_Tables_number 1
loop_
_symmetry_equiv_pos_site_id
_symmetry_equiv_pos_as_xyz
1 x,y,z
_cell_length_a         6.9424000000
_cell_length_b        12.6807000000
_cell_length_c         7.1914000000
_cell_angle_alpha        87.3704
_cell_angle_beta        64.0210
_cell_angle_gamma        86.1770
_cell_formula_units_Z 1
loop_
_atom_site_label
_atom_site_type_symbol
_atom_site_fract_x
_atom_site_fract_y
_atom_site_fract_z
C      C      0.99485000000000     0.40000000000000     0.31875000000000
C      C      0.00515000000000     0.60000000000000     0.68125000000000
C      C      0.17502000000000     0.35232000000000     0.33885000000000
C      C      0.82498000000000     0.64768000000000     0.66115000000000
C      C      0.20962000000000     0.24129000000000     0.33472000000000
C      C      0.79038000000000     0.75871000000000     0.66528000000000
C      C      0.06069000000000     0.17978000000000     0.31302000000000
C      C      0.93931000000000     0.82022000000000     0.68698000000000
C      C      0.88172000000000     0.22692000000000     0.29452000000000
C      C      0.11828000000000     0.77308000000000     0.70548000000000
C      C      0.84604000000000     0.33705000000000     0.29669000000000
C      C      0.15396000000000     0.66295000000000     0.70331000000000
O      O      0.06541000000000     0.07383000000000     0.30568000000000
O      O      0.93459000000000     0.92617000000000     0.69432000000000
B      B      0.87478000000000     0.05650000000000     0.28198000000000
B      B      0.12522000000000     0.94350000000000     0.71802000000000
O      O      0.76004000000000     0.15413000000000     0.27449000000000
O      O      0.23996000000000     0.84587000000000     0.72551000000000
C      C      0.81069000000000     0.95008000000000     0.26252000000000
C      C      0.18931000000000     0.04992000000000     0.73748000000000
C      C      0.62814000000000     0.93197000000000     0.23216000000000
C      C      0.37186000000000     0.06803000000000     0.76784000000000
C      C      0.55913000000000     0.83287000000000     0.20800000000000
C      C      0.44087000000000     0.16713000000000     0.79200000000000
C      C      0.65639000000000     0.73419000000000     0.23033000000000
C      C      0.34361000000000     0.26581000000000     0.76967000000000
C      C      0.58224000000000     0.63800000000000     0.20381000000000
C      C      0.41776000000000     0.36200000000000     0.79619000000000
C      C      0.40782000000000     0.63867000000000     0.15424000000000
C      C      0.59218000000000     0.36133000000000     0.84576000000000
C      C      0.30809000000000     0.73503000000000     0.13153000000000
C      C      0.69191000000000     0.26497000000000     0.86847000000000
C      C      0.38361000000000     0.83080000000000     0.15785000000000
C      C      0.61639000000000     0.16920000000000     0.84215000000000
H      H      0.97236000000000     0.48056000000000     0.32000000000000
H      H      0.02764000000000     0.51944000000000     0.68000000000000
H      H      0.28203000000000     0.39835000000000     0.35511000000000
H      H      0.71797000000000     0.60165000000000     0.64489000000000
H      H      0.34050000000000     0.20532000000000     0.34558000000000
H      H      0.65950000000000     0.79468000000000     0.65442000000000
H      H      0.71422000000000     0.36947000000000     0.28321000000000
H      H      0.28578000000000     0.63053000000000     0.71679000000000
H      H      0.90896000000000     0.88942000000000     0.27185000000000
H      H      0.09104000000000     0.11058000000000     0.72815000000000
H      H      0.53656000000000     0.99774000000000     0.22583000000000
H      H      0.46344000000000     0.00226000000000     0.77417000000000
H      H      0.78292000000000     0.73086000000000     0.26616000000000
H      H      0.21708000000000     0.26914000000000     0.73384000000000
H      H      0.65536000000000     0.56782000000000     0.21977000000000
H      H      0.34464000000000     0.43218000000000     0.78023000000000
H      H      0.35375000000000     0.56926000000000     0.13381000000000
H      H      0.64625000000000     0.43074000000000     0.86619000000000
H      H      0.18162000000000     0.73534000000000     0.09491000000000
H      H      0.81838000000000     0.26466000000000     0.90509000000000
H      H      0.30950000000000     0.89984000000000     0.13846000000000
H      H      0.69050000000000     0.10016000000000     0.86154000000000
