data_default
_cell_volume          1070.012860
_symmetry_space_group_name_H-M 'P 1'
_symmetry_Int_Tables_number 1
loop_
_symmetry_equiv_pos_site_id
_symmetry_equiv_pos_as_xyz
1 x,y,z
_cell_length_a         6.4908000000
_cell_length_b        25.5165000000
_cell_length_c         6.9644000000
_cell_angle_alpha        90.0000
_cell_angle_beta       111.9280
_cell_angle_gamma        90.0000
_cell_formula_units_Z 1
loop_
_atom_site_label
_atom_site_type_symbol
_atom_site_fract_x
_atom_site_fract_y
_atom_site_fract_z
C      C      0.61722000000000     0.32748000000000     0.39403000000000
C      C      0.38278000000000     0.67252000000000     0.60597000000000
C      C      0.38278000000000     0.82748000000000     0.10597000000000
C      C      0.61722000000000     0.17252000000000     0.89403000000000
C      C      0.82889000000000     0.30863000000000     0.43595000000000
C      C      0.17111000000000     0.69137000000000     0.56405000000000
C      C      0.17111000000000     0.80863000000000     0.06405000000000
C      C      0.82889000000000     0.19137000000000     0.93595000000000
C      C      0.86572000000000     0.25532000000000     0.43883000000000
C      C      0.13428000000000     0.74468000000000     0.56117000000000
C      C      0.13428000000000     0.75532000000000     0.06117000000000
C      C      0.86572000000000     0.24468000000000     0.93883000000000
C      C      0.69092000000000     0.22086000000000     0.39981000000000
C      C      0.30908000000000     0.77914000000000     0.60019000000000
C      C      0.30908000000000     0.72086000000000     0.10019000000000
C      C      0.69092000000000     0.27914000000000     0.89981000000000
C      C      0.47926000000000     0.23970000000000     0.35789000000000
C      C      0.52074000000000     0.76030000000000     0.64211000000000
C      C      0.52074000000000     0.73970000000000     0.14211000000000
C      C      0.47926000000000     0.26030000000000     0.85789000000000
C      C      0.44240000000000     0.29302000000000     0.35493000000000
C      C      0.55760000000000     0.70698000000000     0.64507000000000
C      C      0.55760000000000     0.79302000000000     0.14507000000000
C      C      0.44240000000000     0.20698000000000     0.85493000000000
O      O      0.68487000000000     0.16637000000000     0.39379000000000
O      O      0.31513000000000     0.83363000000000     0.60621000000000
O      O      0.31513000000000     0.66637000000000     0.10621000000000
O      O      0.68487000000000     0.33363000000000     0.89379000000000
B      B      0.46426000000000     0.15323000000000     0.34724000000000
B      B      0.53574000000000     0.84677000000000     0.65276000000000
B      B      0.53574000000000     0.65323000000000     0.15276000000000
B      B      0.46426000000000     0.34677000000000     0.84724000000000
O      O      0.33358000000000     0.19765000000000     0.32425000000000
O      O      0.66642000000000     0.80235000000000     0.67575000000000
O      O      0.66642000000000     0.69765000000000     0.17575000000000
O      O      0.33358000000000     0.30235000000000     0.82425000000000
C      C      0.37470000000000     0.09624000000000     0.32381000000000
C      C      0.62530000000000     0.90376000000000     0.67619000000000
C      C      0.62530000000000     0.59624000000000     0.17619000000000
C      C      0.37470000000000     0.40376000000000     0.82381000000000
C      C      0.16216000000000     0.08367000000000     0.29158000000000
C      C      0.83784000000000     0.91633000000000     0.70842000000000
C      C      0.83784000000000     0.58367000000000     0.20842000000000
C      C      0.16216000000000     0.41633000000000     0.79158000000000
C      C      0.06664000000000     0.03076000000000     0.26809000000000
C      C      0.93336000000000     0.96924000000000     0.73191000000000
C      C      0.93336000000000     0.53076000000000     0.23191000000000
C      C      0.06664000000000     0.46924000000000     0.76809000000000
C      C      0.19640000000000     0.98634000000000     0.29936000000000
C      C      0.80360000000000     0.01366000000000     0.70064000000000
C      C      0.80360000000000     0.48634000000000     0.20064000000000
C      C      0.19640000000000     0.51366000000000     0.79936000000000
C      C      0.09944000000000     0.93742000000000     0.27555000000000
C      C      0.90056000000000     0.06258000000000     0.72445000000000
C      C      0.90056000000000     0.43742000000000     0.22445000000000
C      C      0.09944000000000     0.56258000000000     0.77555000000000
C      C      0.87272000000000     0.93290000000000     0.22047000000000
C      C      0.12728000000000     0.06710000000000     0.77953000000000
C      C      0.12728000000000     0.43290000000000     0.27953000000000
C      C      0.87272000000000     0.56710000000000     0.72047000000000
C      C      0.74297000000000     0.97732000000000     0.18921000000000
C      C      0.25703000000000     0.02268000000000     0.81079000000000
C      C      0.25703000000000     0.47732000000000     0.31079000000000
C      C      0.74297000000000     0.52268000000000     0.68921000000000
C      C      0.83993000000000     0.02625000000000     0.21304000000000
C      C      0.16007000000000     0.97375000000000     0.78696000000000
C      C      0.16007000000000     0.52625000000000     0.28696000000000
C      C      0.83993000000000     0.47375000000000     0.71304000000000
H      H      0.58948000000000     0.36765000000000     0.39195000000000
H      H      0.41052000000000     0.63235000000000     0.60805000000000
H      H      0.41052000000000     0.86765000000000     0.10805000000000
H      H      0.58948000000000     0.13235000000000     0.89195000000000
H      H      0.96064000000000     0.33461000000000     0.46536000000000
H      H      0.03936000000000     0.66539000000000     0.53464000000000
H      H      0.03936000000000     0.83461000000000     0.03464000000000
H      H      0.96064000000000     0.16539000000000     0.96536000000000
H      H      0.02523000000000     0.24112000000000     0.47040000000000
H      H      0.97477000000000     0.75888000000000     0.52960000000000
H      H      0.97477000000000     0.74112000000000     0.02960000000000
H      H      0.02523000000000     0.25888000000000     0.97040000000000
H      H      0.28287000000000     0.30721000000000     0.32318000000000
H      H      0.71713000000000     0.69279000000000     0.67682000000000
H      H      0.71713000000000     0.80721000000000     0.17682000000000
H      H      0.28287000000000     0.19279000000000     0.82318000000000
H      H      0.48937000000000     0.06685000000000     0.33435000000000
H      H      0.51063000000000     0.93315000000000     0.66565000000000
H      H      0.51063000000000     0.56685000000000     0.16565000000000
H      H      0.48937000000000     0.43315000000000     0.83435000000000
H      H      0.04748000000000     0.11307000000000     0.28107000000000
H      H      0.95252000000000     0.88693000000000     0.71893000000000
H      H      0.95252000000000     0.61307000000000     0.21893000000000
H      H      0.04748000000000     0.38693000000000     0.78107000000000
H      H      0.36726000000000     0.98974000000000     0.34089000000000
H      H      0.63274000000000     0.01026000000000     0.65911000000000
H      H      0.63274000000000     0.48974000000000     0.15911000000000
H      H      0.36726000000000     0.51026000000000     0.84089000000000
H      H      0.19723000000000     0.90394000000000     0.29913000000000
H      H      0.80277000000000     0.09606000000000     0.70087000000000
H      H      0.80277000000000     0.40394000000000     0.20087000000000
H      H      0.19723000000000     0.59606000000000     0.79913000000000
H      H      0.79965000000000     0.89603000000000     0.20254000000000
H      H      0.20035000000000     0.10397000000000     0.79746000000000
H      H      0.20035000000000     0.39603000000000     0.29746000000000
H      H      0.79965000000000     0.60397000000000     0.70254000000000
H      H      0.57210000000000     0.97392000000000     0.14770000000000
H      H      0.42790000000000     0.02608000000000     0.85230000000000
H      H      0.42790000000000     0.47392000000000     0.35230000000000
H      H      0.57210000000000     0.52608000000000     0.64770000000000
H      H      0.74216000000000     0.05972000000000     0.18955000000000
H      H      0.25784000000000     0.94028000000000     0.81045000000000
H      H      0.25784000000000     0.55972000000000     0.31045000000000
H      H      0.74216000000000     0.44028000000000     0.68955000000000
