data_default
_cell_volume          1204.974262
_symmetry_space_group_name_H-M 'P 1'
_symmetry_Int_Tables_number 1
loop_
_symmetry_equiv_pos_site_id
_symmetry_equiv_pos_as_xyz
1 x,y,z
_cell_length_a         7.9130000000
_cell_length_b        12.9700000000
_cell_length_c        11.7500000000
_cell_angle_alpha        90.0000
_cell_angle_beta        87.7290
_cell_angle_gamma        90.0000
_cell_formula_units_Z 1
loop_
_atom_site_label
_atom_site_type_symbol
_atom_site_fract_x
_atom_site_fract_y
_atom_site_fract_z
H      H      0.34221000000000     0.40541000000000     0.97380000000000
H      H      0.65779000000000     0.59459000000000     0.02620000000000
H      H      0.65779000000000     0.90541000000000     0.52620000000000
H      H      0.34221000000000     0.09459000000000     0.47380000000000
C      C      0.38479000000000     0.35584000000000     0.04004000000000
C      C      0.61521000000000     0.64416000000000     0.95996000000000
C      C      0.61521000000000     0.85584000000000     0.45996000000000
C      C      0.38479000000000     0.14416000000000     0.54004000000000
C      C      0.47482000000000     0.39351000000000     0.13097000000000
C      C      0.52518000000000     0.60649000000000     0.86903000000000
C      C      0.52518000000000     0.89351000000000     0.36903000000000
C      C      0.47482000000000     0.10649000000000     0.63097000000000
H      H      0.50261000000000     0.47452000000000     0.13510000000000
H      H      0.49739000000000     0.52548000000000     0.86490000000000
H      H      0.49739000000000     0.97452000000000     0.36490000000000
H      H      0.50261000000000     0.02548000000000     0.63510000000000
C      C      0.52891000000000     0.32861000000000     0.21578000000000
C      C      0.47109000000000     0.67139000000000     0.78422000000000
C      C      0.47109000000000     0.82861000000000     0.28422000000000
C      C      0.52891000000000     0.17139000000000     0.71578000000000
H      H      0.59798000000000     0.36011000000000     0.28464000000000
H      H      0.40202000000000     0.63989000000000     0.71536000000000
H      H      0.40202000000000     0.86011000000000     0.21536000000000
H      H      0.59798000000000     0.13989000000000     0.78464000000000
C      C      0.49557000000000     0.22299000000000     0.21374000000000
C      C      0.50443000000000     0.77701000000000     0.78626000000000
C      C      0.50443000000000     0.72299000000000     0.28626000000000
C      C      0.49557000000000     0.27701000000000     0.71374000000000
H      H      0.53692000000000     0.17197000000000     0.27906000000000
H      H      0.46308000000000     0.82803000000000     0.72094000000000
H      H      0.46308000000000     0.67197000000000     0.22094000000000
H      H      0.53692000000000     0.32803000000000     0.77906000000000
C      C      0.40704000000000     0.18719000000000     0.12390000000000
C      C      0.59296000000000     0.81281000000000     0.87610000000000
C      C      0.59296000000000     0.68719000000000     0.37610000000000
C      C      0.40704000000000     0.31281000000000     0.62390000000000
C      C      0.35303000000000     0.25199000000000     0.03921000000000
C      C      0.64697000000000     0.74801000000000     0.96079000000000
C      C      0.64697000000000     0.75199000000000     0.46079000000000
C      C      0.35303000000000     0.24801000000000     0.53921000000000
O      O      0.26914000000000     0.19526000000000     0.96195000000000
O      O      0.73086000000000     0.80474000000000     0.03805000000000
O      O      0.73086000000000     0.69526000000000     0.53805000000000
O      O      0.26914000000000     0.30474000000000     0.46195000000000
B      B      0.27262000000000     0.09493000000000     0.00057000000000
B      B      0.72738000000000     0.90507000000000     0.99943000000000
B      B      0.72738000000000     0.59493000000000     0.49943000000000
B      B      0.27262000000000     0.40507000000000     0.50057000000000
O      O      0.35769000000000     0.08915000000000     0.10075000000000
O      O      0.64231000000000     0.91085000000000     0.89925000000000
O      O      0.64231000000000     0.58915000000000     0.39925000000000
O      O      0.35769000000000     0.41085000000000     0.60075000000000
C      C      0.19239000000000     0.00263000000000     0.93981000000000
C      C      0.80761000000000     0.99737000000000     0.06019000000000
C      C      0.80761000000000     0.50263000000000     0.56019000000000
C      C      0.19239000000000     0.49737000000000     0.43981000000000
H      H      0.12914000000000     0.01706000000000     0.86182000000000
H      H      0.87086000000000     0.98294000000000     0.13818000000000
H      H      0.87086000000000     0.51706000000000     0.63818000000000
H      H      0.12914000000000     0.48294000000000     0.36182000000000
C      C      0.20032000000000     0.90746000000000     0.98179000000000
C      C      0.79968000000000     0.09254000000000     0.01821000000000
C      C      0.79968000000000     0.40746000000000     0.51821000000000
C      C      0.20032000000000     0.59254000000000     0.48179000000000
H      H      0.26494000000000     0.89686000000000     0.06003000000000
H      H      0.73506000000000     0.10314000000000     0.93997000000000
H      H      0.73506000000000     0.39686000000000     0.43997000000000
H      H      0.26494000000000     0.60314000000000     0.56003000000000
C      C      0.13074000000000     0.81156000000000     0.93456000000000
C      C      0.86926000000000     0.18844000000000     0.06544000000000
C      C      0.86926000000000     0.31156000000000     0.56544000000000
C      C      0.13074000000000     0.68844000000000     0.43456000000000
C      C      0.04272000000000     0.80873000000000     0.83394000000000
C      C      0.95728000000000     0.19127000000000     0.16606000000000
C      C      0.95728000000000     0.30873000000000     0.66606000000000
C      C      0.04272000000000     0.69127000000000     0.33394000000000
H      H      0.02276000000000     0.87843000000000     0.78686000000000
H      H      0.97724000000000     0.12157000000000     0.21314000000000
H      H      0.97724000000000     0.37843000000000     0.71314000000000
H      H      0.02276000000000     0.62157000000000     0.28686000000000
C      C      0.98038000000000     0.71692000000000     0.79365000000000
C      C      0.01962000000000     0.28308000000000     0.20635000000000
C      C      0.01962000000000     0.21692000000000     0.70635000000000
C      C      0.98038000000000     0.78308000000000     0.29365000000000
H      H      0.91286000000000     0.71609000000000     0.71601000000000
H      H      0.08714000000000     0.28391000000000     0.28399000000000
H      H      0.08714000000000     0.21609000000000     0.78399000000000
H      H      0.91286000000000     0.78391000000000     0.21601000000000
C      C      0.00443000000000     0.62573000000000     0.85287000000000
C      C      0.99557000000000     0.37427000000000     0.14713000000000
C      C      0.99557000000000     0.12573000000000     0.64713000000000
C      C      0.00443000000000     0.87427000000000     0.35287000000000
H      H      0.95566000000000     0.55433000000000     0.82121000000000
H      H      0.04434000000000     0.44567000000000     0.17879000000000
H      H      0.04434000000000     0.05433000000000     0.67879000000000
H      H      0.95566000000000     0.94567000000000     0.32121000000000
C      C      0.09133000000000     0.62733000000000     0.95262000000000
C      C      0.90867000000000     0.37267000000000     0.04738000000000
C      C      0.90867000000000     0.12733000000000     0.54738000000000
C      C      0.09133000000000     0.87267000000000     0.45262000000000
H      H      0.11066000000000     0.55717000000000     0.99913000000000
H      H      0.88934000000000     0.44283000000000     0.00087000000000
H      H      0.88934000000000     0.05717000000000     0.50087000000000
H      H      0.11066000000000     0.94283000000000     0.49913000000000
C      C      0.15381000000000     0.71959000000000     0.99291000000000
C      C      0.84619000000000     0.28041000000000     0.00709000000000
C      C      0.84619000000000     0.21959000000000     0.50709000000000
C      C      0.15381000000000     0.78041000000000     0.49291000000000
H      H      0.22135000000000     0.72026000000000     0.07064000000000
H      H      0.77865000000000     0.27974000000000     0.92936000000000
H      H      0.77865000000000     0.22026000000000     0.42936000000000
H      H      0.22135000000000     0.77974000000000     0.57064000000000
