data_default
_cell_volume          1293.791146
_symmetry_space_group_name_H-M 'P 1'
_symmetry_Int_Tables_number 1
loop_
_symmetry_equiv_pos_site_id
_symmetry_equiv_pos_as_xyz
1 x,y,z
_cell_length_a        11.5700000000
_cell_length_b         6.0000000000
_cell_length_c        19.9900000000
_cell_angle_alpha        90.0000
_cell_angle_beta        68.8000
_cell_angle_gamma        90.0000
_cell_formula_units_Z 1
loop_
_atom_site_label
_atom_site_type_symbol
_atom_site_fract_x
_atom_site_fract_y
_atom_site_fract_z
H      H      0.62817000000000     0.54500000000000     0.14158000000000
H      H      0.12817000000000     0.04500000000000     0.14158000000000
H      H      0.62817000000000     0.45500000000000     0.64158000000000
H      H      0.12817000000000     0.95500000000000     0.64158000000000
C      C      0.72142000000000     0.55584000000000     0.14061000000000
C      C      0.22142000000000     0.05584000000000     0.14061000000000
C      C      0.72142000000000     0.44416000000000     0.64061000000000
C      C      0.22142000000000     0.94416000000000     0.64061000000000
C      C      0.75759000000000     0.71978000000000     0.17855000000000
C      C      0.25759000000000     0.21978000000000     0.17855000000000
C      C      0.75759000000000     0.28022000000000     0.67855000000000
C      C      0.25759000000000     0.78022000000000     0.67855000000000
H      H      0.69031000000000     0.83908000000000     0.20974000000000
H      H      0.19031000000000     0.33908000000000     0.20974000000000
H      H      0.69031000000000     0.16092000000000     0.70974000000000
H      H      0.19031000000000     0.66092000000000     0.70974000000000
C      C      0.87818000000000     0.73166000000000     0.17679000000000
C      C      0.37818000000000     0.23166000000000     0.17679000000000
C      C      0.87818000000000     0.26834000000000     0.67679000000000
C      C      0.37818000000000     0.76834000000000     0.67679000000000
H      H      0.90303000000000     0.86005000000000     0.20664000000000
H      H      0.40303000000000     0.36005000000000     0.20664000000000
H      H      0.90303000000000     0.13995000000000     0.70664000000000
H      H      0.40303000000000     0.63995000000000     0.70664000000000
C      C      0.96840000000000     0.58020000000000     0.13701000000000
C      C      0.46840000000000     0.08020000000000     0.13701000000000
C      C      0.96840000000000     0.41980000000000     0.63701000000000
C      C      0.46840000000000     0.91980000000000     0.63701000000000
H      H      0.06219000000000     0.58784000000000     0.13526000000000
H      H      0.56219000000000     0.08784000000000     0.13526000000000
H      H      0.06219000000000     0.41216000000000     0.63526000000000
H      H      0.56219000000000     0.91216000000000     0.63526000000000
C      C      0.93147000000000     0.42027000000000     0.10006000000000
C      C      0.43147000000000     0.92027000000000     0.10006000000000
C      C      0.93147000000000     0.57973000000000     0.60006000000000
C      C      0.43147000000000     0.07973000000000     0.60006000000000
C      C      0.81098000000000     0.40838000000000     0.10182000000000
C      C      0.31098000000000     0.90838000000000     0.10182000000000
C      C      0.81098000000000     0.59162000000000     0.60182000000000
C      C      0.31098000000000     0.09162000000000     0.60182000000000
O      O      0.80177000000000     0.23423000000000     0.06040000000000
O      O      0.30177000000000     0.73423000000000     0.06040000000000
O      O      0.80177000000000     0.76577000000000     0.56040000000000
O      O      0.30177000000000     0.26577000000000     0.56040000000000
B      B      0.91814000000000     0.13972000000000     0.03328000000000
B      B      0.41814000000000     0.63972000000000     0.03328000000000
B      B      0.91814000000000     0.86028000000000     0.53328000000000
B      B      0.41814000000000     0.36028000000000     0.53328000000000
O      O      0.99906000000000     0.25367000000000     0.05752000000000
O      O      0.49906000000000     0.75367000000000     0.05752000000000
O      O      0.99906000000000     0.74633000000000     0.55752000000000
O      O      0.49906000000000     0.24633000000000     0.55752000000000
C      C      0.95230000000000     0.93551000000000     0.98299000000000
C      C      0.45230000000000     0.43551000000000     0.98299000000000
C      C      0.95230000000000     0.06449000000000     0.48299000000000
C      C      0.45230000000000     0.56449000000000     0.48299000000000
H      H      0.88072000000000     0.86078000000000     0.96781000000000
H      H      0.38072000000000     0.36078000000000     0.96781000000000
H      H      0.88072000000000     0.13922000000000     0.46781000000000
H      H      0.38072000000000     0.63922000000000     0.46781000000000
C      C      0.06681000000000     0.85239000000000     0.95869000000000
C      C      0.56681000000000     0.35239000000000     0.95869000000000
C      C      0.06681000000000     0.14761000000000     0.45869000000000
C      C      0.56681000000000     0.64761000000000     0.45869000000000
H      H      0.13529000000000     0.93286000000000     0.97537000000000
H      H      0.63529000000000     0.43286000000000     0.97537000000000
H      H      0.13529000000000     0.06714000000000     0.47537000000000
H      H      0.63529000000000     0.56714000000000     0.47537000000000
C      C      0.11429000000000     0.65964000000000     0.91064000000000
C      C      0.61429000000000     0.15964000000000     0.91064000000000
C      C      0.11429000000000     0.34036000000000     0.41064000000000
C      C      0.61429000000000     0.84036000000000     0.41064000000000
C      C      0.04058000000000     0.53300000000000     0.88307000000000
C      C      0.54058000000000     0.03300000000000     0.88307000000000
C      C      0.04058000000000     0.46700000000000     0.38307000000000
C      C      0.54058000000000     0.96700000000000     0.38307000000000
H      H      0.94440000000000     0.57383000000000     0.89654000000000
H      H      0.44440000000000     0.07383000000000     0.89654000000000
H      H      0.94440000000000     0.42617000000000     0.39654000000000
H      H      0.44440000000000     0.92617000000000     0.39654000000000
C      C      0.08986000000000     0.35427000000000     0.83833000000000
C      C      0.58986000000000     0.85427000000000     0.83833000000000
C      C      0.08986000000000     0.64573000000000     0.33833000000000
C      C      0.58986000000000     0.14573000000000     0.33833000000000
H      H      0.03172000000000     0.25849000000000     0.81757000000000
H      H      0.53172000000000     0.75849000000000     0.81757000000000
H      H      0.03172000000000     0.74151000000000     0.31757000000000
H      H      0.53172000000000     0.24151000000000     0.31757000000000
C      C      0.21387000000000     0.29790000000000     0.82006000000000
C      C      0.71387000000000     0.79790000000000     0.82006000000000
C      C      0.21387000000000     0.70210000000000     0.32006000000000
C      C      0.71387000000000     0.20210000000000     0.32006000000000
H      H      0.25192000000000     0.15855000000000     0.78519000000000
H      H      0.75192000000000     0.65855000000000     0.78519000000000
H      H      0.25192000000000     0.84145000000000     0.28519000000000
H      H      0.75192000000000     0.34145000000000     0.28519000000000
C      C      0.28808000000000     0.42181000000000     0.84695000000000
C      C      0.78808000000000     0.92181000000000     0.84695000000000
C      C      0.28808000000000     0.57819000000000     0.34695000000000
C      C      0.78808000000000     0.07819000000000     0.34695000000000
H      H      0.38426000000000     0.37948000000000     0.83312000000000
H      H      0.88426000000000     0.87948000000000     0.83312000000000
H      H      0.38426000000000     0.62052000000000     0.33312000000000
H      H      0.88426000000000     0.12052000000000     0.33312000000000
C      C      0.23843000000000     0.60105000000000     0.89184000000000
C      C      0.73843000000000     0.10105000000000     0.89184000000000
C      C      0.23843000000000     0.39895000000000     0.39184000000000
C      C      0.73843000000000     0.89895000000000     0.39184000000000
H      H      0.29675000000000     0.69675000000000     0.91256000000000
H      H      0.79675000000000     0.19675000000000     0.91256000000000
H      H      0.29675000000000     0.30325000000000     0.41256000000000
H      H      0.79675000000000     0.80325000000000     0.41256000000000
