data_default
_cell_volume           619.991797
_symmetry_space_group_name_H-M 'P 1'
_symmetry_Int_Tables_number 1
loop_
_symmetry_equiv_pos_site_id
_symmetry_equiv_pos_as_xyz
1 x,y,z
_cell_length_a        15.5560000000
_cell_length_b         4.0000000000
_cell_length_c        10.0000000000
_cell_angle_alpha        90.0000
_cell_angle_beta        85.1280
_cell_angle_gamma        90.0000
_cell_formula_units_Z 1
loop_
_atom_site_label
_atom_site_type_symbol
_atom_site_fract_x
_atom_site_fract_y
_atom_site_fract_z
H      H      0.24949000000000     0.75000000000000     0.97629000000000
H      H      0.75051000000000     0.25000000000000     0.02371000000000
C      C      0.21638000000000     0.75000000000000     0.88336000000000
C      C      0.78362000000000     0.25000000000000     0.11664000000000
C      C      0.13229000000000     0.75000000000000     0.64788000000000
C      C      0.86771000000000     0.25000000000000     0.35212000000000
C      C      0.26437000000000     0.75000000000000     0.75896000000000
C      C      0.73563000000000     0.25000000000000     0.24104000000000
C      C      0.12663000000000     0.75000000000000     0.89023000000000
C      C      0.87337000000000     0.25000000000000     0.10977000000000
C      C      0.08343000000000     0.75000000000000     0.77237000000000
C      C      0.91657000000000     0.25000000000000     0.22763000000000
C      C      0.22213000000000     0.75000000000000     0.64145000000000
C      C      0.77787000000000     0.25000000000000     0.35855000000000
H      H      0.33527000000000     0.75000000000000     0.75368000000000
H      H      0.66473000000000     0.25000000000000     0.24632000000000
H      H      0.08912000000000     0.75000000000000     0.98866000000000
H      H      0.91088000000000     0.25000000000000     0.01134000000000
C      C      0.98964000000000     0.75000000000000     0.78387000000000
C      C      0.01036000000000     0.25000000000000     0.21613000000000
H      H      0.25972000000000     0.75000000000000     0.54318000000000
H      H      0.74028000000000     0.25000000000000     0.45682000000000
H      H      0.09975000000000     0.75000000000000     0.55437000000000
H      H      0.90025000000000     0.25000000000000     0.44563000000000
C      C      0.93988000000000     0.75000000000000     0.68103000000000
C      C      0.06012000000000     0.25000000000000     0.31897000000000
H      H      0.95904000000000     0.75000000000000     0.88801000000000
H      H      0.04096000000000     0.25000000000000     0.11199000000000
B      B      0.84192000000000     0.75000000000000     0.70020000000000
B      B      0.15808000000000     0.25000000000000     0.29980000000000
H      H      0.96371000000000     0.75000000000000     0.57477000000000
H      H      0.03629000000000     0.25000000000000     0.42523000000000
O      O      0.79211000000000     0.75000000000000     0.82445000000000
O      O      0.20789000000000     0.25000000000000     0.17555000000000
O      O      0.78933000000000     0.75000000000000     0.59249000000000
O      O      0.21067000000000     0.25000000000000     0.40751000000000
H      H      0.48977000000000     0.75000000000000     0.63310000000000
H      H      0.51023000000000     0.25000000000000     0.36690000000000
C      C      0.70483000000000     0.75000000000000     0.65111000000000
C      C      0.29517000000000     0.25000000000000     0.34889000000000
C      C      0.55392000000000     0.75000000000000     0.81631000000000
C      C      0.44608000000000     0.25000000000000     0.18369000000000
C      C      0.62821000000000     0.75000000000000     0.59050000000000
C      C      0.37179000000000     0.25000000000000     0.40950000000000
C      C      0.70652000000000     0.75000000000000     0.79322000000000
C      C      0.29348000000000     0.25000000000000     0.20678000000000
C      C      0.63164000000000     0.75000000000000     0.87818000000000
C      C      0.36836000000000     0.25000000000000     0.12182000000000
C      C      0.55227000000000     0.75000000000000     0.67706000000000
C      C      0.44773000000000     0.25000000000000     0.32294000000000
H      H      0.62677000000000     0.75000000000000     0.48102000000000
H      H      0.37323000000000     0.25000000000000     0.51898000000000
H      H      0.49271000000000     0.75000000000000     0.88016000000000
H      H      0.50729000000000     0.25000000000000     0.11984000000000
H      H      0.63278000000000     0.75000000000000     0.98770000000000
H      H      0.36722000000000     0.25000000000000     0.01230000000000
