data_default
_cell_volume          1086.136877
_symmetry_space_group_name_H-M 'P 1'
_symmetry_Int_Tables_number 1
loop_
_symmetry_equiv_pos_site_id
_symmetry_equiv_pos_as_xyz
1 x,y,z
_cell_length_a         9.9151600000
_cell_length_b         5.4656100000
_cell_length_c        27.8118800000
_cell_angle_alpha        90.0000
_cell_angle_beta        46.1070
_cell_angle_gamma        90.0000
_cell_formula_units_Z 1
loop_
_atom_site_label
_atom_site_type_symbol
_atom_site_fract_x
_atom_site_fract_y
_atom_site_fract_z
C      C      0.36673800000000     0.09532600000000     0.59877600000000
C      C      0.63326200000000     0.90467400000000     0.40122400000000
C      C      0.63326200000000     0.59532600000000     0.90122400000000
C      C      0.36673800000000     0.40467400000000     0.09877600000000
C      C      0.33675900000000     0.11551600000000     0.65600100000000
C      C      0.66324100000000     0.88448400000000     0.34399900000000
C      C      0.66324100000000     0.61551600000000     0.84399900000000
C      C      0.33675900000000     0.38448400000000     0.15600100000000
C      C      0.24453500000000     0.31746300000000     0.69811500000000
C      C      0.75546500000000     0.68253700000000     0.30188500000000
C      C      0.75546500000000     0.81746300000000     0.80188500000000
C      C      0.24453500000000     0.18253700000000     0.19811500000000
C      C      0.17887000000000     0.50629000000000     0.68447500000000
C      C      0.82113000000000     0.49371000000000     0.31552500000000
C      C      0.82113000000000     0.00629000000000     0.81552500000000
C      C      0.17887000000000     0.99371000000000     0.18447500000000
C      C      0.30132200000000     0.28195700000000     0.58618300000000
C      C      0.69867800000000     0.71804300000000     0.41381700000000
C      C      0.69867800000000     0.78195700000000     0.91381700000000
C      C      0.30132200000000     0.21804300000000     0.08618300000000
C      C      0.20901400000000     0.48364500000000     0.62829000000000
C      C      0.79098600000000     0.51635500000000     0.37171000000000
C      C      0.79098600000000     0.98364500000000     0.87171000000000
C      C      0.20901400000000     0.01635500000000     0.12829000000000
O      O      0.16006600000000     0.63812500000000     0.60429900000000
O      O      0.83993400000000     0.36187500000000     0.39570100000000
O      O      0.83993400000000     0.13812500000000     0.89570100000000
O      O      0.16006600000000     0.86187500000000     0.10429900000000
O      O      0.31182300000000     0.30808300000000     0.53510100000000
O      O      0.68817700000000     0.69191700000000     0.46489900000000
O      O      0.68817700000000     0.80808300000000     0.96489900000000
O      O      0.31182300000000     0.19191700000000     0.03510100000000
B      B      0.22402200000000     0.52742500000000     0.54717700000000
B      B      0.77597800000000     0.47257500000000     0.45282300000000
B      B      0.77597800000000     0.02742500000000     0.95282300000000
B      B      0.22402200000000     0.97257500000000     0.04717700000000
C      C      0.20034900000000     0.63607600000000     0.50239700000000
C      C      0.79965100000000     0.36392400000000     0.49760300000000
C      C      0.79965100000000     0.13607600000000     0.99760300000000
C      C      0.20034900000000     0.86392400000000     0.00239700000000
C      C      0.26439000000000     0.52117200000000     0.44747900000000
C      C      0.73561000000000     0.47882800000000     0.55252100000000
C      C      0.73561000000000     0.02117200000000     0.05252100000000
C      C      0.26439000000000     0.97882800000000     0.94747900000000
C      C      0.25354200000000     0.59540700000000     0.39901700000000
C      C      0.74645800000000     0.40459300000000     0.60098300000000
C      C      0.74645800000000     0.09540700000000     0.10098300000000
C      C      0.25354200000000     0.90459300000000     0.89901700000000
C      C      0.33220100000000     0.44075200000000     0.34495400000000
C      C      0.66779900000000     0.55924800000000     0.65504600000000
C      C      0.66779900000000     0.94075200000000     0.15504600000000
C      C      0.33220100000000     0.05924800000000     0.84495400000000
C      C      0.32506600000000     0.49910800000000     0.29781900000000
C      C      0.67493400000000     0.50089200000000     0.70218100000000
C      C      0.67493400000000     0.99910800000000     0.20218100000000
C      C      0.32506600000000     0.00089200000000     0.79781900000000
C      C      0.23751400000000     0.71454900000000     0.30448700000000
C      C      0.76248600000000     0.28545100000000     0.69551300000000
C      C      0.76248600000000     0.21454900000000     0.19551300000000
C      C      0.23751400000000     0.78545100000000     0.80448700000000
C      C      0.15892500000000     0.87185300000000     0.35795700000000
C      C      0.84107500000000     0.12814700000000     0.64204300000000
C      C      0.84107500000000     0.37185300000000     0.14204300000000
C      C      0.15892500000000     0.62814700000000     0.85795700000000
C      C      0.16799400000000     0.81190200000000     0.40458000000000
C      C      0.83200600000000     0.18809800000000     0.59542000000000
C      C      0.83200600000000     0.31190200000000     0.09542000000000
C      C      0.16799400000000     0.68809800000000     0.90458000000000
H      H      0.43811300000000     0.94056600000000     0.56543900000000
H      H      0.56188700000000     0.05943400000000     0.43456100000000
H      H      0.56188700000000     0.44056600000000     0.93456100000000
H      H      0.43811300000000     0.55943400000000     0.06543900000000
H      H      0.38698600000000     0.97140100000000     0.66682400000000
H      H      0.61301400000000     0.02859900000000     0.33317600000000
H      H      0.61301400000000     0.47140100000000     0.83317600000000
H      H      0.38698600000000     0.52859900000000     0.16682400000000
H      H      0.22180300000000     0.33069700000000     0.74207000000000
H      H      0.77819700000000     0.66930300000000     0.25793000000000
H      H      0.77819700000000     0.83069700000000     0.75793000000000
H      H      0.22180300000000     0.16930300000000     0.24207000000000
H      H      0.10708300000000     0.66455800000000     0.71631200000000
H      H      0.89291700000000     0.33544200000000     0.28368800000000
H      H      0.89291700000000     0.16455800000000     0.78368800000000
H      H      0.10708300000000     0.83544200000000     0.21631200000000
H      H      0.12961300000000     0.80952900000000     0.51727700000000
H      H      0.87038700000000     0.19047100000000     0.48272300000000
H      H      0.87038700000000     0.30952900000000     0.98272300000000
H      H      0.12961300000000     0.69047100000000     0.01727700000000
H      H      0.33465800000000     0.34835200000000     0.43572400000000
H      H      0.66534200000000     0.65164800000000     0.56427600000000
H      H      0.66534200000000     0.84835200000000     0.06427600000000
H      H      0.33465800000000     0.15164800000000     0.93572400000000
H      H      0.39905900000000     0.27325700000000     0.33973900000000
H      H      0.60094100000000     0.72674300000000     0.66026100000000
H      H      0.60094100000000     0.77325700000000     0.16026100000000
H      H      0.39905900000000     0.22674300000000     0.83973900000000
H      H      0.38724200000000     0.37708500000000     0.25640700000000
H      H      0.61275800000000     0.62291500000000     0.74359300000000
H      H      0.61275800000000     0.87708500000000     0.24359300000000
H      H      0.38724200000000     0.12291500000000     0.75640700000000
H      H      0.23077600000000     0.75954700000000     0.26838100000000
H      H      0.76922400000000     0.24045300000000     0.73161900000000
H      H      0.76922400000000     0.25954700000000     0.23161900000000
H      H      0.23077600000000     0.74045300000000     0.76838100000000
H      H      0.09117500000000     0.03895800000000     0.36328300000000
H      H      0.90882500000000     0.96104200000000     0.63671700000000
H      H      0.90882500000000     0.53895800000000     0.13671700000000
H      H      0.09117500000000     0.46104200000000     0.86328300000000
H      H      0.10691500000000     0.93495300000000     0.44557000000000
H      H      0.89308500000000     0.06504700000000     0.55443000000000
H      H      0.89308500000000     0.43495300000000     0.05443000000000
H      H      0.10691500000000     0.56504700000000     0.94557000000000
