data_default
_cell_volume          1087.069256
_symmetry_space_group_name_H-M 'P 1'
_symmetry_Int_Tables_number 1
loop_
_symmetry_equiv_pos_site_id
_symmetry_equiv_pos_as_xyz
1 x,y,z
_cell_length_a         6.7625900000
_cell_length_b         7.7583200000
_cell_length_c        20.9397500000
_cell_angle_alpha        90.0000
_cell_angle_beta        98.3200
_cell_angle_gamma        90.0000
_cell_formula_units_Z 1
loop_
_atom_site_label
_atom_site_type_symbol
_atom_site_fract_x
_atom_site_fract_y
_atom_site_fract_z
C      C      0.26978800000000     0.49915500000000     0.88299900000000
C      C      0.73021200000000     0.50084500000000     0.11700100000000
C      C      0.73021200000000     0.99915500000000     0.61700100000000
C      C      0.26978800000000     0.00084500000000     0.38299900000000
C      C      0.43104200000000     0.54385300000000     0.85064700000000
C      C      0.56895800000000     0.45614700000000     0.14935300000000
C      C      0.56895800000000     0.04385300000000     0.64935300000000
C      C      0.43104200000000     0.95614700000000     0.35064700000000
C      C      0.62043100000000     0.47356200000000     0.86911600000000
C      C      0.37956900000000     0.52643800000000     0.13088400000000
C      C      0.37956900000000     0.97356200000000     0.63088400000000
C      C      0.62043100000000     0.02643800000000     0.36911600000000
C      C      0.65536100000000     0.35541900000000     0.92033600000000
C      C      0.34463900000000     0.64458100000000     0.07966400000000
C      C      0.34463900000000     0.85541900000000     0.57966400000000
C      C      0.65536100000000     0.14458100000000     0.42033600000000
C      C      0.30633900000000     0.38268600000000     0.93309800000000
C      C      0.69366100000000     0.61731400000000     0.06690200000000
C      C      0.69366100000000     0.88268600000000     0.56690200000000
C      C      0.30633900000000     0.11731400000000     0.43309800000000
C      C      0.49555600000000     0.31198700000000     0.95106300000000
C      C      0.50444400000000     0.68801300000000     0.04893700000000
C      C      0.50444400000000     0.81198700000000     0.54893700000000
C      C      0.49555600000000     0.18801300000000     0.45106300000000
O      O      0.48999500000000     0.20143000000000     0.00081400000000
O      O      0.51000500000000     0.79857000000000     0.99918600000000
O      O      0.51000500000000     0.70143000000000     0.49918600000000
O      O      0.48999500000000     0.29857000000000     0.50081400000000
O      O      0.17986600000000     0.31790400000000     0.97205200000000
O      O      0.82013400000000     0.68209600000000     0.02794800000000
O      O      0.82013400000000     0.81790400000000     0.52794800000000
O      O      0.17986600000000     0.18209600000000     0.47205200000000
B      B      0.29563500000000     0.20666200000000     0.01315500000000
B      B      0.70436500000000     0.79333800000000     0.98684500000000
B      B      0.70436500000000     0.70666200000000     0.48684500000000
B      B      0.29563500000000     0.29333800000000     0.51315500000000
C      C      0.22426900000000     0.09972700000000     0.06736000000000
C      C      0.77573100000000     0.90027300000000     0.93264000000000
C      C      0.77573100000000     0.59972700000000     0.43264000000000
C      C      0.22426900000000     0.40027300000000     0.56736000000000
C      C      0.03854800000000     0.10559500000000     0.08193500000000
C      C      0.96145200000000     0.89440500000000     0.91806500000000
C      C      0.96145200000000     0.60559500000000     0.41806500000000
C      C      0.03854800000000     0.39440500000000     0.58193500000000
C      C      0.95489400000000     0.00992400000000     0.13316900000000
C      C      0.04510600000000     0.99007600000000     0.86683100000000
C      C      0.04510600000000     0.50992400000000     0.36683100000000
C      C      0.95489400000000     0.49007600000000     0.63316900000000
C      C      0.75595400000000     0.03927000000000     0.14131600000000
C      C      0.24404600000000     0.96073000000000     0.85868400000000
C      C      0.24404600000000     0.53927000000000     0.35868400000000
C      C      0.75595400000000     0.46073000000000     0.64131600000000
C      C      0.67006200000000     0.95398200000000     0.18943000000000
C      C      0.32993800000000     0.04601800000000     0.81057000000000
C      C      0.32993800000000     0.45398200000000     0.31057000000000
C      C      0.67006200000000     0.54601800000000     0.68943000000000
C      C      0.78284000000000     0.83582800000000     0.22984700000000
C      C      0.21716000000000     0.16417200000000     0.77015300000000
C      C      0.21716000000000     0.33582800000000     0.27015300000000
C      C      0.78284000000000     0.66417200000000     0.72984700000000
C      C      0.98135700000000     0.80477500000000     0.22228000000000
C      C      0.01864300000000     0.19522500000000     0.77772000000000
C      C      0.01864300000000     0.30477500000000     0.27772000000000
C      C      0.98135700000000     0.69522500000000     0.72228000000000
C      C      0.06587500000000     0.89181200000000     0.17445300000000
C      C      0.93412500000000     0.10818800000000     0.82554700000000
C      C      0.93412500000000     0.39181200000000     0.32554700000000
C      C      0.06587500000000     0.60818800000000     0.67445300000000
H      H      0.12205200000000     0.55221000000000     0.86954600000000
H      H      0.87794800000000     0.44779000000000     0.13045400000000
H      H      0.87794800000000     0.05221000000000     0.63045400000000
H      H      0.12205200000000     0.94779000000000     0.36954600000000
H      H      0.40595900000000     0.63446600000000     0.81108400000000
H      H      0.59404100000000     0.36553400000000     0.18891600000000
H      H      0.59404100000000     0.13446600000000     0.68891600000000
H      H      0.40595900000000     0.86553400000000     0.31108400000000
H      H      0.74381300000000     0.50905100000000     0.84430800000000
H      H      0.25618700000000     0.49094900000000     0.15569200000000
H      H      0.25618700000000     0.00905100000000     0.65569200000000
H      H      0.74381300000000     0.99094900000000     0.34430800000000
H      H      0.80106500000000     0.29966700000000     0.93561600000000
H      H      0.19893500000000     0.70033300000000     0.06438400000000
H      H      0.19893500000000     0.79966700000000     0.56438400000000
H      H      0.80106500000000     0.20033300000000     0.43561600000000
H      H      0.33506500000000     0.01769400000000     0.09410400000000
H      H      0.66493500000000     0.98230600000000     0.90589600000000
H      H      0.66493500000000     0.51769400000000     0.40589600000000
H      H      0.33506500000000     0.48230600000000     0.59410400000000
H      H      0.93348800000000     0.19096800000000     0.05374400000000
H      H      0.06651200000000     0.80903200000000     0.94625600000000
H      H      0.06651200000000     0.69096800000000     0.44625600000000
H      H      0.93348800000000     0.30903200000000     0.55374400000000
H      H      0.66865300000000     0.12993300000000     0.10980300000000
H      H      0.33134700000000     0.87006700000000     0.89019700000000
H      H      0.33134700000000     0.62993300000000     0.39019700000000
H      H      0.66865300000000     0.37006700000000     0.60980300000000
H      H      0.51680200000000     0.97899600000000     0.19529900000000
H      H      0.48319800000000     0.02100400000000     0.80470100000000
H      H      0.48319800000000     0.47899600000000     0.30470100000000
H      H      0.51680200000000     0.52100400000000     0.69529900000000
H      H      0.71710700000000     0.76806500000000     0.26669000000000
H      H      0.28289300000000     0.23193500000000     0.73331000000000
H      H      0.28289300000000     0.26806500000000     0.23331000000000
H      H      0.71710700000000     0.73193500000000     0.76669000000000
H      H      0.06929300000000     0.71323900000000     0.25313100000000
H      H      0.93070700000000     0.28676100000000     0.74686900000000
H      H      0.93070700000000     0.21323900000000     0.24686900000000
H      H      0.06929300000000     0.78676100000000     0.75313100000000
H      H      0.21923600000000     0.86500700000000     0.16950900000000
H      H      0.78076400000000     0.13499300000000     0.83049100000000
H      H      0.78076400000000     0.36500700000000     0.33049100000000
H      H      0.21923600000000     0.63499300000000     0.66950900000000
