data_default
_cell_volume          1269.436084
_symmetry_space_group_name_H-M 'P 1'
_symmetry_Int_Tables_number 1
loop_
_symmetry_equiv_pos_site_id
_symmetry_equiv_pos_as_xyz
1 x,y,z
_cell_length_a        13.0380000000
_cell_length_b         4.0000000000
_cell_length_c        24.4130000000
_cell_angle_alpha        90.0000
_cell_angle_beta        94.3990
_cell_angle_gamma        90.0000
_cell_formula_units_Z 1
loop_
_atom_site_label
_atom_site_type_symbol
_atom_site_fract_x
_atom_site_fract_y
_atom_site_fract_z
H      H      0.26038000000000     0.75000000000000     0.93397000000000
H      H      0.73962000000000     0.25000000000000     0.06603000000000
H      H      0.73962000000000     0.25000000000000     0.56603000000000
H      H      0.26038000000000     0.75000000000000     0.43397000000000
C      C      0.26004000000000     0.75000000000000     0.97902000000000
C      C      0.73996000000000     0.25000000000000     0.02098000000000
C      C      0.73996000000000     0.25000000000000     0.52098000000000
C      C      0.26004000000000     0.75000000000000     0.47902000000000
C      C      0.25897000000000     0.75000000000000     0.09323000000000
C      C      0.74103000000000     0.25000000000000     0.90677000000000
C      C      0.74103000000000     0.25000000000000     0.40677000000000
C      C      0.25897000000000     0.75000000000000     0.59323000000000
C      C      0.35280000000000     0.75000000000000     0.01158000000000
C      C      0.64720000000000     0.25000000000000     0.98842000000000
C      C      0.64720000000000     0.25000000000000     0.48842000000000
C      C      0.35280000000000     0.75000000000000     0.51158000000000
C      C      0.16696000000000     0.75000000000000     0.00340000000000
C      C      0.83304000000000     0.25000000000000     0.99660000000000
C      C      0.83304000000000     0.25000000000000     0.49660000000000
C      C      0.16696000000000     0.75000000000000     0.50340000000000
C      C      0.16531000000000     0.75000000000000     0.06090000000000
C      C      0.83469000000000     0.25000000000000     0.93910000000000
C      C      0.83469000000000     0.25000000000000     0.43910000000000
C      C      0.16531000000000     0.75000000000000     0.56090000000000
C      C      0.35199000000000     0.75000000000000     0.06865000000000
C      C      0.64801000000000     0.25000000000000     0.93135000000000
C      C      0.64801000000000     0.25000000000000     0.43135000000000
C      C      0.35199000000000     0.75000000000000     0.56865000000000
H      H      0.42628000000000     0.75000000000000     0.99227000000000
H      H      0.57372000000000     0.25000000000000     0.00773000000000
H      H      0.57372000000000     0.25000000000000     0.50773000000000
H      H      0.42628000000000     0.75000000000000     0.49227000000000
H      H      0.09404000000000     0.75000000000000     0.97750000000000
H      H      0.90596000000000     0.25000000000000     0.02250000000000
H      H      0.90596000000000     0.25000000000000     0.52250000000000
H      H      0.09404000000000     0.75000000000000     0.47750000000000
C      C      0.06650000000000     0.75000000000000     0.08474000000000
C      C      0.93350000000000     0.25000000000000     0.91526000000000
C      C      0.93350000000000     0.25000000000000     0.41526000000000
C      C      0.06650000000000     0.75000000000000     0.58474000000000
H      H      0.42495000000000     0.75000000000000     0.09447000000000
H      H      0.57505000000000     0.25000000000000     0.90553000000000
H      H      0.57505000000000     0.25000000000000     0.40553000000000
H      H      0.42495000000000     0.75000000000000     0.59447000000000
H      H      0.25943000000000     0.75000000000000     0.13832000000000
H      H      0.74057000000000     0.25000000000000     0.86168000000000
H      H      0.74057000000000     0.25000000000000     0.36168000000000
H      H      0.25943000000000     0.75000000000000     0.63832000000000
C      C      0.05288000000000     0.75000000000000     0.13853000000000
C      C      0.94712000000000     0.25000000000000     0.86147000000000
C      C      0.94712000000000     0.25000000000000     0.36147000000000
C      C      0.05288000000000     0.75000000000000     0.63853000000000
H      H      0.99852000000000     0.75000000000000     0.05460000000000
H      H      0.00148000000000     0.25000000000000     0.94540000000000
H      H      0.00148000000000     0.25000000000000     0.44540000000000
H      H      0.99852000000000     0.75000000000000     0.55460000000000
B      B      0.94713000000000     0.75000000000000     0.16073000000000
B      B      0.05287000000000     0.25000000000000     0.83927000000000
B      B      0.05287000000000     0.25000000000000     0.33927000000000
B      B      0.94713000000000     0.75000000000000     0.66073000000000
H      H      0.11478000000000     0.75000000000000     0.17150000000000
H      H      0.88522000000000     0.25000000000000     0.82850000000000
H      H      0.88522000000000     0.25000000000000     0.32850000000000
H      H      0.11478000000000     0.75000000000000     0.67150000000000
O      O      0.85259000000000     0.75000000000000     0.12878000000000
O      O      0.14741000000000     0.25000000000000     0.87122000000000
O      O      0.14741000000000     0.25000000000000     0.37122000000000
O      O      0.85259000000000     0.75000000000000     0.62878000000000
O      O      0.93239000000000     0.75000000000000     0.21722000000000
O      O      0.06761000000000     0.25000000000000     0.78278000000000
O      O      0.06761000000000     0.25000000000000     0.28278000000000
O      O      0.93239000000000     0.75000000000000     0.71722000000000
H      H      0.61543000000000     0.75000000000000     0.29191000000000
H      H      0.38457000000000     0.25000000000000     0.70809000000000
H      H      0.38457000000000     0.25000000000000     0.20809000000000
H      H      0.61543000000000     0.75000000000000     0.79191000000000
C      C      0.82618000000000     0.75000000000000     0.22048000000000
C      C      0.17382000000000     0.25000000000000     0.77952000000000
C      C      0.17382000000000     0.25000000000000     0.27952000000000
C      C      0.82618000000000     0.75000000000000     0.72048000000000
C      C      0.61497000000000     0.75000000000000     0.20344000000000
C      C      0.38503000000000     0.25000000000000     0.79656000000000
C      C      0.38503000000000     0.25000000000000     0.29656000000000
C      C      0.61497000000000     0.75000000000000     0.70344000000000
C      C      0.77040000000000     0.75000000000000     0.26639000000000
C      C      0.22960000000000     0.25000000000000     0.73361000000000
C      C      0.22960000000000     0.25000000000000     0.23361000000000
C      C      0.77040000000000     0.75000000000000     0.76639000000000
C      C      0.77728000000000     0.75000000000000     0.16630000000000
C      C      0.22272000000000     0.25000000000000     0.83370000000000
C      C      0.22272000000000     0.25000000000000     0.33370000000000
C      C      0.77728000000000     0.75000000000000     0.66630000000000
C      C      0.67141000000000     0.75000000000000     0.15672000000000
C      C      0.32859000000000     0.25000000000000     0.84328000000000
C      C      0.32859000000000     0.25000000000000     0.34328000000000
C      C      0.67141000000000     0.75000000000000     0.65672000000000
C      C      0.66288000000000     0.75000000000000     0.25652000000000
C      C      0.33712000000000     0.25000000000000     0.74348000000000
C      C      0.33712000000000     0.25000000000000     0.24348000000000
C      C      0.66288000000000     0.75000000000000     0.75652000000000
H      H      0.80792000000000     0.75000000000000     0.30817000000000
H      H      0.19208000000000     0.25000000000000     0.69183000000000
H      H      0.19208000000000     0.25000000000000     0.19183000000000
H      H      0.80792000000000     0.75000000000000     0.80817000000000
H      H      0.53042000000000     0.75000000000000     0.19772000000000
H      H      0.46958000000000     0.25000000000000     0.80228000000000
H      H      0.46958000000000     0.25000000000000     0.30228000000000
H      H      0.53042000000000     0.75000000000000     0.69772000000000
H      H      0.63356000000000     0.75000000000000     0.11501000000000
H      H      0.36644000000000     0.25000000000000     0.88499000000000
H      H      0.36644000000000     0.25000000000000     0.38499000000000
H      H      0.63356000000000     0.75000000000000     0.61501000000000
