data_default
_cell_volume          1128.342266
_symmetry_space_group_name_H-M 'P 1'
_symmetry_Int_Tables_number 1
loop_
_symmetry_equiv_pos_site_id
_symmetry_equiv_pos_as_xyz
1 x,y,z
_cell_length_a        17.8507000000
_cell_length_b         3.8474000000
_cell_length_c        29.7588000000
_cell_angle_alpha        90.0000
_cell_angle_beta       146.4901
_cell_angle_gamma        90.0000
_cell_formula_units_Z 1
loop_
_atom_site_label
_atom_site_type_symbol
_atom_site_fract_x
_atom_site_fract_y
_atom_site_fract_z
H      H      0.52601000000000     0.67380000000000     0.55099000000000
H      H      0.47399000000000     0.32620000000000     0.44901000000000
H      H      0.47399000000000     0.17380000000000     0.94901000000000
H      H      0.52601000000000     0.82620000000000     0.05099000000000
C      C      0.62223000000000     0.80628000000000     0.60339000000000
C      C      0.37777000000000     0.19372000000000     0.39661000000000
C      C      0.37777000000000     0.30628000000000     0.89661000000000
C      C      0.62223000000000     0.69372000000000     0.10339000000000
C      C      0.70248000000000     0.90663000000000     0.60682000000000
C      C      0.29752000000000     0.09337000000000     0.39318000000000
C      C      0.29752000000000     0.40663000000000     0.89318000000000
C      C      0.70248000000000     0.59337000000000     0.10682000000000
C      C      0.67208000000000     0.88497000000000     0.67061000000000
C      C      0.32792000000000     0.11503000000000     0.32939000000000
C      C      0.32792000000000     0.38497000000000     0.82939000000000
C      C      0.67208000000000     0.61503000000000     0.17061000000000
C      C      0.79588000000000     0.05555000000000     0.73855000000000
C      C      0.20412000000000     0.94445000000000     0.26145000000000
C      C      0.20412000000000     0.55555000000000     0.76145000000000
C      C      0.79588000000000     0.44445000000000     0.23855000000000
C      C      0.82652000000000     0.07754000000000     0.67490000000000
C      C      0.17348000000000     0.92246000000000     0.32510000000000
C      C      0.17348000000000     0.57754000000000     0.82510000000000
C      C      0.82652000000000     0.42246000000000     0.17490000000000
H      H      0.66743000000000     0.85030000000000     0.55553000000000
H      H      0.33257000000000     0.14970000000000     0.44447000000000
H      H      0.33257000000000     0.35030000000000     0.94447000000000
H      H      0.66743000000000     0.64970000000000     0.05553000000000
O      O      0.61536000000000     0.81791000000000     0.68363000000000
O      O      0.38464000000000     0.18209000000000     0.31637000000000
O      O      0.38464000000000     0.31791000000000     0.81637000000000
O      O      0.61536000000000     0.68209000000000     0.18363000000000
C      C      0.87597000000000     0.15589000000000     0.74267000000000
C      C      0.12403000000000     0.84411000000000     0.25733000000000
C      C      0.12403000000000     0.65589000000000     0.75733000000000
C      C      0.87597000000000     0.34411000000000     0.24267000000000
O      O      0.81912000000000     0.09866000000000     0.79546000000000
O      O      0.18088000000000     0.90134000000000     0.20454000000000
O      O      0.18088000000000     0.59866000000000     0.70454000000000
O      O      0.81912000000000     0.40134000000000     0.29546000000000
H      H      0.88586000000000     0.15127000000000     0.67544000000000
H      H      0.11414000000000     0.84873000000000     0.32456000000000
H      H      0.11414000000000     0.65127000000000     0.82456000000000
H      H      0.88586000000000     0.34873000000000     0.17544000000000
B      B      0.70692000000000     0.95083000000000     0.76083000000000
B      B      0.29308000000000     0.04917000000000     0.23917000000000
B      B      0.29308000000000     0.45083000000000     0.73917000000000
B      B      0.70692000000000     0.54917000000000     0.26083000000000
H      H      0.97186000000000     0.28812000000000     0.79571000000000
H      H      0.02814000000000     0.71188000000000     0.20429000000000
H      H      0.02814000000000     0.78812000000000     0.70429000000000
H      H      0.97186000000000     0.21188000000000     0.29571000000000
C      C      0.68648000000000     0.93568000000000     0.80160000000000
C      C      0.31352000000000     0.06432000000000     0.19840000000000
C      C      0.31352000000000     0.43568000000000     0.69840000000000
C      C      0.68648000000000     0.56432000000000     0.30160000000000
H      H      0.59500000000000     0.81395000000000     0.76856000000000
H      H      0.40500000000000     0.18605000000000     0.23144000000000
H      H      0.40500000000000     0.31395000000000     0.73144000000000
H      H      0.59500000000000     0.68605000000000     0.26856000000000
C      C      0.77811000000000     0.06805000000000     0.87657000000000
C      C      0.22189000000000     0.93195000000000     0.12343000000000
C      C      0.22189000000000     0.56805000000000     0.62343000000000
C      C      0.77811000000000     0.43195000000000     0.37657000000000
H      H      0.86835000000000     0.18777000000000     0.90774000000000
H      H      0.13165000000000     0.81223000000000     0.09226000000000
H      H      0.13165000000000     0.68777000000000     0.59226000000000
H      H      0.86835000000000     0.31223000000000     0.40774000000000
C      C      0.77218000000000     0.07221000000000     0.92283000000000
C      C      0.22782000000000     0.92779000000000     0.07717000000000
C      C      0.22782000000000     0.57221000000000     0.57717000000000
C      C      0.77218000000000     0.42779000000000     0.42283000000000
C      C      0.87984000000000     0.22497000000000     0.00062000000000
C      C      0.12016000000000     0.77503000000000     0.99938000000000
C      C      0.12016000000000     0.72497000000000     0.49938000000000
C      C      0.87984000000000     0.27503000000000     0.50062000000000
C      C      0.66360000000000     0.93030000000000     0.89323000000000
C      C      0.33640000000000     0.06970000000000     0.10677000000000
C      C      0.33640000000000     0.43030000000000     0.60677000000000
C      C      0.66360000000000     0.56970000000000     0.39323000000000
C      C      0.66321000000000     0.94138000000000     0.93975000000000
C      C      0.33679000000000     0.05862000000000     0.06025000000000
C      C      0.33679000000000     0.44138000000000     0.56025000000000
C      C      0.66321000000000     0.55862000000000     0.43975000000000
C      C      0.87957000000000     0.23625000000000     0.04729000000000
C      C      0.12043000000000     0.76375000000000     0.95271000000000
C      C      0.12043000000000     0.73625000000000     0.45271000000000
C      C      0.87957000000000     0.26375000000000     0.54729000000000
H      H      0.96420000000000     0.33542000000000     0.02431000000000
H      H      0.03580000000000     0.66458000000000     0.97569000000000
H      H      0.03580000000000     0.83542000000000     0.47569000000000
H      H      0.96420000000000     0.16458000000000     0.52431000000000
H      H      0.57914000000000     0.81080000000000     0.83350000000000
H      H      0.42086000000000     0.18920000000000     0.16650000000000
H      H      0.42086000000000     0.31080000000000     0.66650000000000
H      H      0.57914000000000     0.68920000000000     0.33350000000000
C      C      0.77112000000000     0.09434000000000     0.01699000000000
C      C      0.22888000000000     0.90566000000000     0.98301000000000
C      C      0.22888000000000     0.59434000000000     0.48301000000000
C      C      0.77112000000000     0.40566000000000     0.51699000000000
H      H      0.57870000000000     0.83071000000000     0.91587000000000
H      H      0.42130000000000     0.16929000000000     0.08413000000000
H      H      0.42130000000000     0.33071000000000     0.58413000000000
H      H      0.57870000000000     0.66929000000000     0.41587000000000
H      H      0.96369000000000     0.35537000000000     0.10708000000000
H      H      0.03631000000000     0.64463000000000     0.89292000000000
H      H      0.03631000000000     0.85537000000000     0.39292000000000
H      H      0.96369000000000     0.14463000000000     0.60708000000000
H      H      0.77043000000000     0.10246000000000     0.05306000000000
H      H      0.22957000000000     0.89754000000000     0.94694000000000
H      H      0.22957000000000     0.60246000000000     0.44694000000000
H      H      0.77043000000000     0.39754000000000     0.55306000000000
