data_default
_cell_volume           531.341557
_symmetry_space_group_name_H-M 'P 1'
_symmetry_Int_Tables_number 1
loop_
_symmetry_equiv_pos_site_id
_symmetry_equiv_pos_as_xyz
1 x,y,z
_cell_length_a         6.2882000000
_cell_length_b         8.8016000000
_cell_length_c         9.9993000000
_cell_angle_alpha        84.2070
_cell_angle_beta        74.8200
_cell_angle_gamma        87.7760
_cell_formula_units_Z 1
loop_
_atom_site_label
_atom_site_type_symbol
_atom_site_fract_x
_atom_site_fract_y
_atom_site_fract_z
C      C      0.30226000000000     0.34529000000000     0.44727000000000
C      C      0.69774000000000     0.65471000000000     0.55273000000000
C      C      0.14875000000000     0.23071000000000     0.47535000000000
C      C      0.85125000000000     0.76929000000000     0.52465000000000
C      C      0.97505000000000     0.24296000000000     0.41427000000000
C      C      0.02495000000000     0.75704000000000     0.58573000000000
C      C      0.95492000000000     0.36978000000000     0.32509000000000
C      C      0.04508000000000     0.63022000000000     0.67491000000000
C      C      0.10846000000000     0.48434000000000     0.29699000000000
C      C      0.89154000000000     0.51566000000000     0.70301000000000
C      C      0.28211000000000     0.47211000000000     0.35809000000000
C      C      0.71789000000000     0.52789000000000     0.64191000000000
O      O      0.79772000000000     0.40844000000000     0.25170000000000
O      O      0.20228000000000     0.59156000000000     0.74830000000000
B      B      0.86147000000000     0.54895000000000     0.17918000000000
B      B      0.13853000000000     0.45105000000000     0.82082000000000
O      O      0.05253000000000     0.59860000000000     0.20508000000000
O      O      0.94747000000000     0.40140000000000     0.79492000000000
C      C      0.73565000000000     0.63923000000000     0.08158000000000
C      C      0.26435000000000     0.36077000000000     0.91842000000000
C      C      0.80880000000000     0.76961000000000     0.00213000000000
C      C      0.19120000000000     0.23039000000000     0.99787000000000
C      C      0.69844000000000     0.86050000000000     0.90784000000000
C      C      0.30156000000000     0.13950000000000     0.09216000000000
C      C      0.50318000000000     0.81557000000000     0.88624000000000
C      C      0.49682000000000     0.18443000000000     0.11376000000000
C      C      0.40533000000000     0.90463000000000     0.79671000000000
C      C      0.59467000000000     0.09537000000000     0.20329000000000
C      C      0.50274000000000     0.03863000000000     0.72872000000000
C      C      0.49726000000000     0.96137000000000     0.27128000000000
C      C      0.69803000000000     0.08354000000000     0.75030000000000
C      C      0.30197000000000     0.91646000000000     0.24970000000000
C      C      0.79588000000000     0.99449000000000     0.83985000000000
C      C      0.20412000000000     0.00551000000000     0.16015000000000
H      H      0.43315000000000     0.33606000000000     0.49332000000000
H      H      0.56685000000000     0.66394000000000     0.50668000000000
H      H      0.16394000000000     0.13513000000000     0.54254000000000
H      H      0.83606000000000     0.86487000000000     0.45746000000000
H      H      0.85937000000000     0.15662000000000     0.43543000000000
H      H      0.14063000000000     0.84338000000000     0.56457000000000
H      H      0.39780000000000     0.55846000000000     0.33694000000000
H      H      0.60220000000000     0.44154000000000     0.66306000000000
H      H      0.58652000000000     0.59362000000000     0.07960000000000
H      H      0.41348000000000     0.40638000000000     0.92040000000000
H      H      0.95792000000000     0.81520000000000     0.00414000000000
H      H      0.04208000000000     0.18480000000000     0.99586000000000
H      H      0.42973000000000     0.71461000000000     0.93751000000000
H      H      0.57027000000000     0.28539000000000     0.06249000000000
H      H      0.25818000000000     0.87077000000000     0.78043000000000
H      H      0.74182000000000     0.12923000000000     0.21957000000000
H      H      0.42901000000000     0.10574000000000     0.66123000000000
H      H      0.57099000000000     0.89426000000000     0.33877000000000
H      H      0.77144000000000     0.18452000000000     0.69907000000000
H      H      0.22856000000000     0.81548000000000     0.30093000000000
H      H      0.94302000000000     0.02835000000000     0.85613000000000
H      H      0.05698000000000     0.97165000000000     0.14387000000000
