data_default
_cell_volume           544.267294
_symmetry_space_group_name_H-M 'P 1'
_symmetry_Int_Tables_number 1
loop_
_symmetry_equiv_pos_site_id
_symmetry_equiv_pos_as_xyz
1 x,y,z
_cell_length_a        10.1541000000
_cell_length_b         3.5037000000
_cell_length_c        15.3149000000
_cell_angle_alpha        90.0000
_cell_angle_beta        87.3341
_cell_angle_gamma        90.0000
_cell_formula_units_Z 1
loop_
_atom_site_label
_atom_site_type_symbol
_atom_site_fract_x
_atom_site_fract_y
_atom_site_fract_z
B      B      0.78660000000000     0.00150000000000     0.16320000000000
B      B      0.21340000000000     0.50150000000000     0.83680000000000
C      C      0.79830000000000     0.00260000000000     0.05680000000000
C      C      0.20170000000000     0.50260000000000     0.94320000000000
C      C      0.70100000000000     0.99820000000000     0.99500000000000
C      C      0.29900000000000     0.49820000000000     0.00500000000000
C      C      0.71180000000000     0.99920000000000     0.90890000000000
C      C      0.28820000000000     0.49920000000000     0.09110000000000
C      C      0.83520000000000     0.00550000000000     0.86580000000000
C      C      0.16480000000000     0.50550000000000     0.13420000000000
C      C      0.84540000000000     0.00650000000000     0.77500000000000
C      C      0.15460000000000     0.50650000000000     0.22500000000000
C      C      0.73220000000000     0.00130000000000     0.72730000000000
C      C      0.26780000000000     0.50130000000000     0.27270000000000
C      C      0.60870000000000     0.99500000000000     0.77050000000000
C      C      0.39130000000000     0.49500000000000     0.22950000000000
C      C      0.59860000000000     0.99400000000000     0.86130000000000
C      C      0.40140000000000     0.49400000000000     0.13870000000000
O      O      0.88970000000000     0.00610000000000     0.21780000000000
O      O      0.11030000000000     0.50610000000000     0.78220000000000
O      O      0.67170000000000     0.99570000000000     0.21380000000000
O      O      0.32830000000000     0.49570000000000     0.78620000000000
C      C      0.83960000000000     0.00320000000000     0.30160000000000
C      C      0.16040000000000     0.50320000000000     0.69840000000000
C      C      0.70290000000000     0.99660000000000     0.29910000000000
C      C      0.29710000000000     0.49660000000000     0.70090000000000
C      C      0.62580000000000     0.99250000000000     0.37650000000000
C      C      0.37420000000000     0.49250000000000     0.62350000000000
C      C      0.68520000000000     0.99490000000000     0.45650000000000
C      C      0.31480000000000     0.49490000000000     0.54350000000000
C      C      0.82190000000000     0.00150000000000     0.45900000000000
C      C      0.17810000000000     0.50150000000000     0.54100000000000
C      C      0.89900000000000     0.00570000000000     0.38150000000000
C      C      0.10100000000000     0.50570000000000     0.61850000000000
H      H      0.92330000000000     0.00950000000000     0.90280000000000
H      H      0.07670000000000     0.50950000000000     0.09720000000000
H      H      0.94140000000000     0.01140000000000     0.74130000000000
H      H      0.05860000000000     0.51140000000000     0.25870000000000
H      H      0.74010000000000     0.00200000000000     0.65680000000000
H      H      0.25990000000000     0.50200000000000     0.34320000000000
H      H      0.52070000000000     0.99100000000000     0.73360000000000
H      H      0.47930000000000     0.49100000000000     0.26640000000000
H      H      0.50260000000000     0.98910000000000     0.89490000000000
H      H      0.49740000000000     0.48910000000000     0.10510000000000
H      H      0.60250000000000     0.99330000000000     0.03470000000000
H      H      0.39750000000000     0.49330000000000     0.96530000000000
H      H      0.89690000000000     0.00750000000000     0.02890000000000
H      H      0.10310000000000     0.50750000000000     0.97110000000000
H      H      0.51950000000000     0.98740000000000     0.37460000000000
H      H      0.48050000000000     0.48740000000000     0.62540000000000
H      H      0.62530000000000     0.99160000000000     0.51660000000000
H      H      0.37470000000000     0.49160000000000     0.48340000000000
H      H      0.86820000000000     0.00340000000000     0.52100000000000
H      H      0.13180000000000     0.50340000000000     0.47900000000000
H      H      0.00520000000000     0.01080000000000     0.38360000000000
H      H      0.99480000000000     0.51080000000000     0.61640000000000
