data_default
_cell_volume          1284.272311
_symmetry_space_group_name_H-M 'P 1'
_symmetry_Int_Tables_number 1
loop_
_symmetry_equiv_pos_site_id
_symmetry_equiv_pos_as_xyz
1 x,y,z
_cell_length_a         6.9900000000
_cell_length_b        10.0300000000
_cell_length_c        25.1700000000
_cell_angle_alpha        90.0000
_cell_angle_beta        46.7000
_cell_angle_gamma        90.0000
_cell_formula_units_Z 1
loop_
_atom_site_label
_atom_site_type_symbol
_atom_site_fract_x
_atom_site_fract_y
_atom_site_fract_z
H      H      0.04910000000000     0.18557000000000     0.12447000000000
H      H      0.54910000000000     0.68557000000000     0.12447000000000
H      H      0.04910000000000     0.81443000000000     0.62447000000000
H      H      0.54910000000000     0.31443000000000     0.62447000000000
C      C      0.17338000000000     0.13825000000000     0.12969000000000
C      C      0.67338000000000     0.63825000000000     0.12969000000000
C      C      0.17338000000000     0.86175000000000     0.62969000000000
C      C      0.67338000000000     0.36175000000000     0.62969000000000
C      C      0.09492000000000     0.02416000000000     0.17212000000000
C      C      0.59492000000000     0.52416000000000     0.17212000000000
C      C      0.09492000000000     0.97584000000000     0.67212000000000
C      C      0.59492000000000     0.47584000000000     0.67212000000000
H      H      0.90446000000000     0.98211000000000     0.20051000000000
H      H      0.40446000000000     0.48211000000000     0.20051000000000
H      H      0.90446000000000     0.01789000000000     0.70051000000000
H      H      0.40446000000000     0.51789000000000     0.70051000000000
C      C      0.25735000000000     0.96423000000000     0.17831000000000
C      C      0.75735000000000     0.46423000000000     0.17831000000000
C      C      0.25735000000000     0.03577000000000     0.67831000000000
C      C      0.75735000000000     0.53577000000000     0.67831000000000
H      H      0.19095000000000     0.87641000000000     0.21145000000000
H      H      0.69095000000000     0.37641000000000     0.21145000000000
H      H      0.19095000000000     0.12359000000000     0.71145000000000
H      H      0.69095000000000     0.62359000000000     0.71145000000000
C      C      0.50600000000000     0.01551000000000     0.14239000000000
C      C      0.00600000000000     0.51551000000000     0.14239000000000
C      C      0.50600000000000     0.98449000000000     0.64239000000000
C      C      0.00600000000000     0.48449000000000     0.64239000000000
H      H      0.63360000000000     0.96986000000000     0.14681000000000
H      H      0.13360000000000     0.46986000000000     0.14681000000000
H      H      0.63360000000000     0.03014000000000     0.64681000000000
H      H      0.13360000000000     0.53014000000000     0.64681000000000
C      C      0.58020000000000     0.12752000000000     0.10096000000000
C      C      0.08020000000000     0.62752000000000     0.10096000000000
C      C      0.58020000000000     0.87248000000000     0.60096000000000
C      C      0.08020000000000     0.37248000000000     0.60096000000000
C      C      0.41793000000000     0.18741000000000     0.09476000000000
C      C      0.91793000000000     0.68741000000000     0.09476000000000
C      C      0.41793000000000     0.81259000000000     0.59476000000000
C      C      0.91793000000000     0.31259000000000     0.59476000000000
O      O      0.54290000000000     0.29581000000000     0.05046000000000
O      O      0.04290000000000     0.79581000000000     0.05046000000000
O      O      0.54290000000000     0.70419000000000     0.55046000000000
O      O      0.04290000000000     0.20419000000000     0.55046000000000
B      B      0.78366000000000     0.30150000000000     0.02963000000000
B      B      0.28366000000000     0.80150000000000     0.02963000000000
B      B      0.78366000000000     0.69850000000000     0.52963000000000
B      B      0.28366000000000     0.19850000000000     0.52963000000000
O      O      0.80861000000000     0.19778000000000     0.06060000000000
O      O      0.30861000000000     0.69778000000000     0.06060000000000
O      O      0.80861000000000     0.80222000000000     0.56060000000000
O      O      0.30861000000000     0.30222000000000     0.56060000000000
C      C      0.99426000000000     0.40893000000000     0.97888000000000
C      C      0.49426000000000     0.90893000000000     0.97888000000000
C      C      0.99426000000000     0.59107000000000     0.47888000000000
C      C      0.49426000000000     0.09107000000000     0.47888000000000
H      H      0.95152000000000     0.48506000000000     0.95808000000000
H      H      0.45152000000000     0.98506000000000     0.95808000000000
H      H      0.95152000000000     0.51494000000000     0.45808000000000
H      H      0.45152000000000     0.01494000000000     0.45808000000000
C      C      0.22335000000000     0.40859000000000     0.96089000000000
C      C      0.72335000000000     0.90859000000000     0.96089000000000
C      C      0.22335000000000     0.59141000000000     0.46089000000000
C      C      0.72335000000000     0.09141000000000     0.46089000000000
H      H      0.25713000000000     0.33038000000000     0.98306000000000
H      H      0.75713000000000     0.83038000000000     0.98306000000000
H      H      0.25713000000000     0.66962000000000     0.48306000000000
H      H      0.75713000000000     0.16962000000000     0.48306000000000
C      C      0.44386000000000     0.50333000000000     0.91339000000000
C      C      0.94386000000000     0.00333000000000     0.91339000000000
C      C      0.44386000000000     0.49667000000000     0.41339000000000
C      C      0.94386000000000     0.99667000000000     0.41339000000000
C      C      0.43924000000000     0.61151000000000     0.87940000000000
C      C      0.93924000000000     0.11151000000000     0.87940000000000
C      C      0.43924000000000     0.38849000000000     0.37940000000000
C      C      0.93924000000000     0.88849000000000     0.37940000000000
H      H      0.26981000000000     0.62915000000000     0.88718000000000
H      H      0.76981000000000     0.12915000000000     0.88718000000000
H      H      0.26981000000000     0.37085000000000     0.38718000000000
H      H      0.76981000000000     0.87085000000000     0.38718000000000
C      C      0.65118000000000     0.69703000000000     0.83549000000000
C      C      0.15118000000000     0.19703000000000     0.83549000000000
C      C      0.65118000000000     0.30297000000000     0.33549000000000
C      C      0.15118000000000     0.80297000000000     0.33549000000000
H      H      0.64428000000000     0.77991000000000     0.80972000000000
H      H      0.14428000000000     0.27991000000000     0.80972000000000
H      H      0.64428000000000     0.22009000000000     0.30972000000000
H      H      0.14428000000000     0.72009000000000     0.30972000000000
C      C      0.87259000000000     0.67652000000000     0.82452000000000
C      C      0.37259000000000     0.17652000000000     0.82452000000000
C      C      0.87259000000000     0.32348000000000     0.32452000000000
C      C      0.37259000000000     0.82348000000000     0.32452000000000
H      H      0.03731000000000     0.74338000000000     0.79028000000000
H      H      0.53731000000000     0.24338000000000     0.79028000000000
H      H      0.03731000000000     0.25662000000000     0.29028000000000
H      H      0.53731000000000     0.75662000000000     0.29028000000000
C      C      0.88008000000000     0.56977000000000     0.85783000000000
C      C      0.38008000000000     0.06977000000000     0.85783000000000
C      C      0.88008000000000     0.43023000000000     0.35783000000000
C      C      0.38008000000000     0.93023000000000     0.35783000000000
H      H      0.05070000000000     0.55301000000000     0.84967000000000
H      H      0.55070000000000     0.05301000000000     0.84967000000000
H      H      0.05070000000000     0.44699000000000     0.34967000000000
H      H      0.55070000000000     0.94699000000000     0.34967000000000
C      C      0.66721000000000     0.48408000000000     0.90185000000000
C      C      0.16721000000000     0.98408000000000     0.90185000000000
C      C      0.66721000000000     0.51592000000000     0.40185000000000
C      C      0.16721000000000     0.01592000000000     0.40185000000000
H      H      0.67442000000000     0.40120000000000     0.92761000000000
H      H      0.17442000000000     0.90120000000000     0.92761000000000
H      H      0.67442000000000     0.59880000000000     0.42761000000000
H      H      0.17442000000000     0.09880000000000     0.42761000000000
