data_default
_cell_volume           569.768181
_symmetry_space_group_name_H-M 'P 1'
_symmetry_Int_Tables_number 1
loop_
_symmetry_equiv_pos_site_id
_symmetry_equiv_pos_as_xyz
1 x,y,z
_cell_length_a        15.2345000000
_cell_length_b         3.8528000000
_cell_length_c        10.5588000000
_cell_angle_alpha        81.3876
_cell_angle_beta        90.0275
_cell_angle_gamma       111.3405
_cell_formula_units_Z 1
loop_
_atom_site_label
_atom_site_type_symbol
_atom_site_fract_x
_atom_site_fract_y
_atom_site_fract_z
H      H      0.41261000000000     0.15038000000000     0.51171000000000
H      H      0.58739000000000     0.84962000000000     0.48829000000000
C      C      0.40674000000000     0.17857000000000     0.61167000000000
C      C      0.59326000000000     0.82143000000000     0.38833000000000
C      C      0.47996000000000     0.19576000000000     0.69407000000000
C      C      0.52004000000000     0.80424000000000     0.30593000000000
C      C      0.32599000000000     0.19945000000000     0.66443000000000
C      C      0.67401000000000     0.80055000000000     0.33557000000000
C      C      0.31742000000000     0.23581000000000     0.79304000000000
C      C      0.68258000000000     0.76419000000000     0.20696000000000
C      C      0.47136000000000     0.23218000000000     0.82292000000000
C      C      0.52864000000000     0.76782000000000     0.17708000000000
H      H      0.54454000000000     0.18044000000000     0.65688000000000
H      H      0.45546000000000     0.81956000000000     0.34312000000000
O      O      0.24426000000000     0.18974000000000     0.60655000000000
O      O      0.75574000000000     0.81026000000000     0.39345000000000
C      C      0.38915000000000     0.25309000000000     0.87527000000000
C      C      0.61085000000000     0.74691000000000     0.12473000000000
O      O      0.23018000000000     0.24958000000000     0.81825000000000
O      O      0.76982000000000     0.75042000000000     0.18175000000000
H      H      0.52937000000000     0.24458000000000     0.88382000000000
H      H      0.47063000000000     0.75542000000000     0.11618000000000
B      B      0.18567000000000     0.22084000000000     0.70233000000000
B      B      0.81433000000000     0.77916000000000     0.29767000000000
H      H      0.38169000000000     0.28132000000000     0.97492000000000
H      H      0.61831000000000     0.71868000000000     0.02508000000000
C      C      0.08625000000000     0.22297000000000     0.68234000000000
C      C      0.91375000000000     0.77703000000000     0.31766000000000
H      H      0.05928000000000     0.19879000000000     0.58772000000000
H      H      0.94072000000000     0.80121000000000     0.41228000000000
C      C      0.03205000000000     0.25365000000000     0.77814000000000
C      C      0.96795000000000     0.74635000000000     0.22186000000000
H      H      0.06137000000000     0.27726000000000     0.87144000000000
H      H      0.93863000000000     0.72274000000000     0.12856000000000
C      C      0.93639000000000     0.25958000000000     0.77316000000000
C      C      0.06361000000000     0.74042000000000     0.22684000000000
C      C      0.89263000000000     0.29386000000000     0.88543000000000
C      C      0.10737000000000     0.70614000000000     0.11457000000000
C      C      0.88578000000000     0.23255000000000     0.66109000000000
C      C      0.11422000000000     0.76745000000000     0.33891000000000
C      C      0.79515000000000     0.23965000000000     0.66180000000000
C      C      0.20485000000000     0.76035000000000     0.33820000000000
C      C      0.80184000000000     0.30101000000000     0.88627000000000
C      C      0.19816000000000     0.69899000000000     0.11373000000000
H      H      0.93064000000000     0.31496000000000     0.97253000000000
H      H      0.06936000000000     0.68504000000000     0.02747000000000
H      H      0.91759000000000     0.20589000000000     0.57305000000000
H      H      0.08241000000000     0.79411000000000     0.42695000000000
C      C      0.75272000000000     0.27391000000000     0.77434000000000
C      C      0.24728000000000     0.72609000000000     0.22566000000000
H      H      0.75735000000000     0.21851000000000     0.57454000000000
H      H      0.24265000000000     0.78149000000000     0.42546000000000
H      H      0.76958000000000     0.32765000000000     0.97397000000000
H      H      0.23042000000000     0.67235000000000     0.02603000000000
H      H      0.68208000000000     0.27933000000000     0.77448000000000
H      H      0.31792000000000     0.72067000000000     0.22552000000000
