data_default
_cell_volume          2279.724789
_symmetry_space_group_name_H-M 'P 1'
_symmetry_Int_Tables_number 1
loop_
_symmetry_equiv_pos_site_id
_symmetry_equiv_pos_as_xyz
1 x,y,z
_cell_length_a         7.1927000000
_cell_length_b        27.4114000000
_cell_length_c        11.5627000000
_cell_angle_alpha        90.0000
_cell_angle_beta        90.0000
_cell_angle_gamma        90.0000
_cell_formula_units_Z 1
loop_
_atom_site_label
_atom_site_type_symbol
_atom_site_fract_x
_atom_site_fract_y
_atom_site_fract_z
H      H      0.93943000000000     0.32382000000000     0.97023000000000
H      H      0.06057000000000     0.67618000000000     0.02977000000000
H      H      0.56057000000000     0.67618000000000     0.47023000000000
H      H      0.43943000000000     0.17618000000000     0.02977000000000
H      H      0.06057000000000     0.82382000000000     0.52977000000000
H      H      0.56057000000000     0.82382000000000     0.97023000000000
H      H      0.43943000000000     0.32382000000000     0.52977000000000
H      H      0.93943000000000     0.17618000000000     0.47023000000000
H      H      0.87094000000000     0.23991000000000     0.95882000000000
H      H      0.12906000000000     0.76009000000000     0.04118000000000
H      H      0.62906000000000     0.76009000000000     0.45882000000000
H      H      0.37094000000000     0.26009000000000     0.04118000000000
H      H      0.12906000000000     0.73991000000000     0.54118000000000
H      H      0.62906000000000     0.73991000000000     0.95882000000000
H      H      0.37094000000000     0.23991000000000     0.54118000000000
H      H      0.87094000000000     0.26009000000000     0.45882000000000
H      H      0.92751000000000     0.94305000000000     0.27735000000000
H      H      0.07249000000000     0.05695000000000     0.72265000000000
H      H      0.57249000000000     0.05695000000000     0.77735000000000
H      H      0.42751000000000     0.55695000000000     0.72265000000000
H      H      0.07249000000000     0.44305000000000     0.22265000000000
H      H      0.57249000000000     0.44305000000000     0.27735000000000
H      H      0.42751000000000     0.94305000000000     0.22265000000000
H      H      0.92751000000000     0.55695000000000     0.77735000000000
C      C      0.97667000000000     0.30201000000000     0.03327000000000
C      C      0.02333000000000     0.69799000000000     0.96673000000000
C      C      0.52333000000000     0.69799000000000     0.53327000000000
C      C      0.47667000000000     0.19799000000000     0.96673000000000
C      C      0.02333000000000     0.80201000000000     0.46673000000000
C      C      0.52333000000000     0.80201000000000     0.03327000000000
C      C      0.47667000000000     0.30201000000000     0.46673000000000
C      C      0.97667000000000     0.19799000000000     0.53327000000000
H      H      0.04198000000000     0.13896000000000     0.24932000000000
H      H      0.95802000000000     0.86104000000000     0.75068000000000
H      H      0.45802000000000     0.86104000000000     0.74932000000000
H      H      0.54198000000000     0.36104000000000     0.75068000000000
H      H      0.95802000000000     0.63896000000000     0.25068000000000
H      H      0.45802000000000     0.63896000000000     0.24932000000000
H      H      0.54198000000000     0.13896000000000     0.25068000000000
H      H      0.04198000000000     0.36104000000000     0.74932000000000
C      C      0.93650000000000     0.25267000000000     0.02669000000000
C      C      0.06350000000000     0.74733000000000     0.97331000000000
C      C      0.56350000000000     0.74733000000000     0.52669000000000
C      C      0.43650000000000     0.24733000000000     0.97331000000000
C      C      0.06350000000000     0.75267000000000     0.47331000000000
C      C      0.56350000000000     0.75267000000000     0.02669000000000
C      C      0.43650000000000     0.25267000000000     0.47331000000000
C      C      0.93650000000000     0.24733000000000     0.52669000000000
O      O      0.95023000000000     0.04036000000000     0.22241000000000
O      O      0.04977000000000     0.95964000000000     0.77759000000000
O      O      0.54977000000000     0.95964000000000     0.72241000000000
O      O      0.45023000000000     0.45964000000000     0.77759000000000
O      O      0.04977000000000     0.54036000000000     0.27759000000000
O      O      0.54977000000000     0.54036000000000     0.22241000000000
O      O      0.45023000000000     0.04036000000000     0.27759000000000
O      O      0.95023000000000     0.45964000000000     0.72241000000000
C      C      0.87302000000000     0.95308000000000     0.20340000000000
C      C      0.12698000000000     0.04692000000000     0.79660000000000
C      C      0.62698000000000     0.04692000000000     0.70340000000000
C      C      0.37302000000000     0.54692000000000     0.79660000000000
C      C      0.12698000000000     0.45308000000000     0.29660000000000
C      C      0.62698000000000     0.45308000000000     0.20340000000000
C      C      0.37302000000000     0.95308000000000     0.29660000000000
C      C      0.87302000000000     0.54692000000000     0.70340000000000
H      H      0.78196000000000     0.88532000000000     0.15126000000000
H      H      0.21804000000000     0.11468000000000     0.84874000000000
H      H      0.71804000000000     0.11468000000000     0.65126000000000
H      H      0.28196000000000     0.61468000000000     0.84874000000000
H      H      0.21804000000000     0.38532000000000     0.34874000000000
H      H      0.71804000000000     0.38532000000000     0.15126000000000
H      H      0.28196000000000     0.88532000000000     0.34874000000000
H      H      0.78196000000000     0.61468000000000     0.65126000000000
C      C      0.87704000000000     0.00076000000000     0.16794000000000
C      C      0.12296000000000     0.99924000000000     0.83206000000000
C      C      0.62296000000000     0.99924000000000     0.66794000000000
C      C      0.37704000000000     0.49924000000000     0.83206000000000
C      C      0.12296000000000     0.50076000000000     0.33206000000000
C      C      0.62296000000000     0.50076000000000     0.16794000000000
C      C      0.37704000000000     0.00076000000000     0.33206000000000
C      C      0.87704000000000     0.49924000000000     0.66794000000000
C      C      0.97680000000000     0.13245000000000     0.17651000000000
C      C      0.02320000000000     0.86755000000000     0.82349000000000
C      C      0.52320000000000     0.86755000000000     0.67651000000000
C      C      0.47680000000000     0.36755000000000     0.82349000000000
C      C      0.02320000000000     0.63245000000000     0.32349000000000
C      C      0.52320000000000     0.63245000000000     0.17651000000000
C      C      0.47680000000000     0.13245000000000     0.32349000000000
C      C      0.97680000000000     0.36755000000000     0.67651000000000
H      H      0.09789000000000     0.35522000000000     0.13378000000000
H      H      0.90211000000000     0.64478000000000     0.86622000000000
H      H      0.40211000000000     0.64478000000000     0.63378000000000
H      H      0.59789000000000     0.14478000000000     0.86622000000000
H      H      0.90211000000000     0.85522000000000     0.36622000000000
H      H      0.40211000000000     0.85522000000000     0.13378000000000
H      H      0.59789000000000     0.35522000000000     0.36622000000000
H      H      0.09789000000000     0.14478000000000     0.63378000000000
C      C      0.78774000000000     0.91979000000000     0.12907000000000
C      C      0.21226000000000     0.08021000000000     0.87093000000000
C      C      0.71226000000000     0.08021000000000     0.62907000000000
C      C      0.28774000000000     0.58021000000000     0.87093000000000
C      C      0.21226000000000     0.41979000000000     0.37093000000000
C      C      0.71226000000000     0.41979000000000     0.12907000000000
C      C      0.28774000000000     0.91979000000000     0.37093000000000
C      C      0.78774000000000     0.58021000000000     0.62907000000000
B      B      0.91771000000000     0.07948000000000     0.15028000000000
B      B      0.08229000000000     0.92052000000000     0.84972000000000
B      B      0.58229000000000     0.92052000000000     0.65028000000000
B      B      0.41771000000000     0.42052000000000     0.84972000000000
B      B      0.08229000000000     0.57948000000000     0.34972000000000
B      B      0.58229000000000     0.57948000000000     0.15028000000000
B      B      0.41771000000000     0.07948000000000     0.34972000000000
B      B      0.91771000000000     0.42052000000000     0.65028000000000
C      C      0.06914000000000     0.32034000000000     0.12870000000000
C      C      0.93086000000000     0.67966000000000     0.87130000000000
C      C      0.43086000000000     0.67966000000000     0.62870000000000
C      C      0.56914000000000     0.17966000000000     0.87130000000000
C      C      0.93086000000000     0.82034000000000     0.37130000000000
C      C      0.43086000000000     0.82034000000000     0.12870000000000
C      C      0.56914000000000     0.32034000000000     0.37130000000000
C      C      0.06914000000000     0.17966000000000     0.62870000000000
C      C      0.98770000000000     0.22084000000000     0.11491000000000
C      C      0.01230000000000     0.77916000000000     0.88509000000000
C      C      0.51230000000000     0.77916000000000     0.61491000000000
C      C      0.48770000000000     0.27916000000000     0.88509000000000
C      C      0.01230000000000     0.72084000000000     0.38509000000000
C      C      0.51230000000000     0.72084000000000     0.11491000000000
C      C      0.48770000000000     0.22084000000000     0.38509000000000
C      C      0.98770000000000     0.27916000000000     0.61491000000000
C      C      0.94098000000000     0.16863000000000     0.10290000000000
C      C      0.05902000000000     0.83137000000000     0.89710000000000
C      C      0.55902000000000     0.83137000000000     0.60290000000000
C      C      0.44098000000000     0.33137000000000     0.89710000000000
C      C      0.05902000000000     0.66863000000000     0.39710000000000
C      C      0.55902000000000     0.66863000000000     0.10290000000000
C      C      0.44098000000000     0.16863000000000     0.39710000000000
C      C      0.94098000000000     0.33137000000000     0.60290000000000
C      C      0.80069000000000     0.01546000000000     0.06378000000000
C      C      0.19931000000000     0.98454000000000     0.93622000000000
C      C      0.69931000000000     0.98454000000000     0.56378000000000
C      C      0.30069000000000     0.48454000000000     0.93622000000000
C      C      0.19931000000000     0.51546000000000     0.43622000000000
C      C      0.69931000000000     0.51546000000000     0.06378000000000
C      C      0.30069000000000     0.01546000000000     0.43622000000000
C      C      0.80069000000000     0.48454000000000     0.56378000000000
O      O      0.82523000000000     0.06444000000000     0.05188000000000
O      O      0.17477000000000     0.93556000000000     0.94812000000000
O      O      0.67477000000000     0.93556000000000     0.55188000000000
O      O      0.32523000000000     0.43556000000000     0.94812000000000
O      O      0.17477000000000     0.56444000000000     0.44812000000000
O      O      0.67477000000000     0.56444000000000     0.05188000000000
O      O      0.32523000000000     0.06444000000000     0.44812000000000
O      O      0.82523000000000     0.43556000000000     0.55188000000000
C      C      0.71133000000000     0.93451000000000     0.02483000000000
C      C      0.28867000000000     0.06549000000000     0.97517000000000
C      C      0.78867000000000     0.06549000000000     0.52483000000000
C      C      0.21133000000000     0.56549000000000     0.97517000000000
C      C      0.28867000000000     0.43451000000000     0.47517000000000
C      C      0.78867000000000     0.43451000000000     0.02483000000000
C      C      0.21133000000000     0.93451000000000     0.47517000000000
C      C      0.71133000000000     0.56549000000000     0.52483000000000
H      H      0.87551000000000     0.16049000000000     0.03112000000000
H      H      0.12449000000000     0.83951000000000     0.96888000000000
H      H      0.62449000000000     0.83951000000000     0.53112000000000
H      H      0.37551000000000     0.33951000000000     0.96888000000000
H      H      0.12449000000000     0.66049000000000     0.46888000000000
H      H      0.62449000000000     0.66049000000000     0.03112000000000
H      H      0.37551000000000     0.16049000000000     0.46888000000000
H      H      0.87551000000000     0.33951000000000     0.53112000000000
C      C      0.71653000000000     0.98322000000000     0.98991000000000
C      C      0.28347000000000     0.01678000000000     0.01009000000000
C      C      0.78347000000000     0.01678000000000     0.48991000000000
C      C      0.21653000000000     0.51678000000000     0.01009000000000
C      C      0.28347000000000     0.48322000000000     0.51009000000000
C      C      0.78347000000000     0.48322000000000     0.98991000000000
C      C      0.21653000000000     0.98322000000000     0.51009000000000
C      C      0.71653000000000     0.51678000000000     0.48991000000000
H      H      0.65234000000000     0.91029000000000     0.97443000000000
H      H      0.34766000000000     0.08971000000000     0.02557000000000
H      H      0.84766000000000     0.08971000000000     0.47443000000000
H      H      0.15234000000000     0.58971000000000     0.02557000000000
H      H      0.34766000000000     0.41029000000000     0.52557000000000
H      H      0.84766000000000     0.41029000000000     0.97443000000000
H      H      0.15234000000000     0.91029000000000     0.52557000000000
H      H      0.65234000000000     0.58971000000000     0.47443000000000
C      C      0.12112000000000     0.28905000000000     0.21741000000000
C      C      0.87888000000000     0.71095000000000     0.78259000000000
C      C      0.37888000000000     0.71095000000000     0.71741000000000
C      C      0.62112000000000     0.21095000000000     0.78259000000000
C      C      0.87888000000000     0.78905000000000     0.28259000000000
C      C      0.37888000000000     0.78905000000000     0.21741000000000
C      C      0.62112000000000     0.28905000000000     0.28259000000000
C      C      0.12112000000000     0.21095000000000     0.71741000000000
C      C      0.08094000000000     0.23988000000000     0.21067000000000
C      C      0.91906000000000     0.76012000000000     0.78933000000000
C      C      0.41906000000000     0.76012000000000     0.71067000000000
C      C      0.58094000000000     0.26012000000000     0.78933000000000
C      C      0.91906000000000     0.73988000000000     0.28933000000000
C      C      0.41906000000000     0.73988000000000     0.21067000000000
C      C      0.58094000000000     0.23988000000000     0.28933000000000
C      C      0.08094000000000     0.26012000000000     0.71067000000000
H      H      0.66287000000000     0.99401000000000     0.91632000000000
H      H      0.33713000000000     0.00599000000000     0.08368000000000
H      H      0.83713000000000     0.00599000000000     0.41632000000000
H      H      0.16287000000000     0.50599000000000     0.08368000000000
H      H      0.33713000000000     0.49401000000000     0.58368000000000
H      H      0.83713000000000     0.49401000000000     0.91632000000000
H      H      0.16287000000000     0.99401000000000     0.58368000000000
H      H      0.66287000000000     0.50599000000000     0.41632000000000
H      H      0.18668000000000     0.30186000000000     0.28522000000000
H      H      0.81332000000000     0.69814000000000     0.71478000000000
H      H      0.31332000000000     0.69814000000000     0.78522000000000
H      H      0.68668000000000     0.19814000000000     0.71478000000000
H      H      0.81332000000000     0.80186000000000     0.21478000000000
H      H      0.31332000000000     0.80186000000000     0.28522000000000
H      H      0.68668000000000     0.30186000000000     0.21478000000000
H      H      0.18668000000000     0.19814000000000     0.78522000000000
H      H      0.11876000000000     0.21836000000000     0.27414000000000
H      H      0.88124000000000     0.78164000000000     0.72586000000000
H      H      0.38124000000000     0.78164000000000     0.77414000000000
H      H      0.61876000000000     0.28164000000000     0.72586000000000
H      H      0.88124000000000     0.71836000000000     0.22586000000000
H      H      0.38124000000000     0.71836000000000     0.27414000000000
H      H      0.61876000000000     0.21836000000000     0.22586000000000
H      H      0.11876000000000     0.28164000000000     0.77414000000000
