data_default
_cell_volume          1110.696885
_symmetry_space_group_name_H-M 'P 1'
_symmetry_Int_Tables_number 1
loop_
_symmetry_equiv_pos_site_id
_symmetry_equiv_pos_as_xyz
1 x,y,z
_cell_length_a         6.8350000000
_cell_length_b         7.6340000000
_cell_length_c        21.4220000000
_cell_angle_alpha        90.0000
_cell_angle_beta        96.4470
_cell_angle_gamma        90.0000
_cell_formula_units_Z 1
loop_
_atom_site_label
_atom_site_type_symbol
_atom_site_fract_x
_atom_site_fract_y
_atom_site_fract_z
C      C      0.28827000000000     0.60351000000000     0.42739000000000
C      C      0.71173000000000     0.39649000000000     0.57261000000000
C      C      0.71173000000000     0.10351000000000     0.07261000000000
C      C      0.28827000000000     0.89649000000000     0.92739000000000
H      H      0.19410000000000     0.53900000000000     0.40060000000000
H      H      0.80590000000000     0.46100000000000     0.59940000000000
H      H      0.80590000000000     0.03900000000000     0.09940000000000
H      H      0.19410000000000     0.96100000000000     0.90060000000000
C      C      0.47581000000000     0.59715000000000     0.41531000000000
C      C      0.52419000000000     0.40285000000000     0.58469000000000
C      C      0.52419000000000     0.09715000000000     0.08469000000000
C      C      0.47581000000000     0.90285000000000     0.91531000000000
H      H      0.56850000000000     0.66060000000000     0.44300000000000
H      H      0.43150000000000     0.33940000000000     0.55700000000000
H      H      0.43150000000000     0.16060000000000     0.05700000000000
H      H      0.56850000000000     0.83940000000000     0.94300000000000
B      B      0.21424000000000     0.70732000000000     0.48127000000000
B      B      0.78576000000000     0.29268000000000     0.51873000000000
B      B      0.78576000000000     0.20732000000000     0.01873000000000
B      B      0.21424000000000     0.79268000000000     0.98127000000000
O      O      0.33111000000000     0.80614000000000     0.52550000000000
O      O      0.66889000000000     0.19386000000000     0.47450000000000
O      O      0.66889000000000     0.30614000000000     0.97450000000000
O      O      0.33111000000000     0.69386000000000     0.02550000000000
O      O      0.01719000000000     0.71233000000000     0.49180000000000
O      O      0.98281000000000     0.28767000000000     0.50820000000000
O      O      0.98281000000000     0.21233000000000     0.00820000000000
O      O      0.01719000000000     0.78767000000000     0.99180000000000
C      C      0.20129000000000     0.87370000000000     0.56460000000000
C      C      0.79871000000000     0.12630000000000     0.43540000000000
C      C      0.79871000000000     0.37370000000000     0.93540000000000
C      C      0.20129000000000     0.62630000000000     0.06460000000000
C      C      0.01226000000000     0.81736000000000     0.54409000000000
C      C      0.98774000000000     0.18264000000000     0.45591000000000
C      C      0.98774000000000     0.31736000000000     0.95591000000000
C      C      0.01226000000000     0.68264000000000     0.04409000000000
C      C      0.85144000000000     0.86350000000000     0.57367000000000
C      C      0.14856000000000     0.13650000000000     0.42633000000000
C      C      0.14856000000000     0.36350000000000     0.92633000000000
C      C      0.85144000000000     0.63650000000000     0.07367000000000
H      H      0.72220000000000     0.82530000000000     0.55900000000000
H      H      0.27780000000000     0.17470000000000     0.44100000000000
H      H      0.27780000000000     0.32530000000000     0.94100000000000
H      H      0.72220000000000     0.67470000000000     0.05900000000000
C      C      0.88969000000000     0.96985000000000     0.62656000000000
C      C      0.11031000000000     0.03015000000000     0.37344000000000
C      C      0.11031000000000     0.46985000000000     0.87344000000000
C      C      0.88969000000000     0.53015000000000     0.12656000000000
H      H      0.78370000000000     0.00450000000000     0.64890000000000
H      H      0.21630000000000     0.99550000000000     0.35110000000000
H      H      0.21630000000000     0.50450000000000     0.85110000000000
H      H      0.78370000000000     0.49550000000000     0.14890000000000
C      C      0.07932000000000     0.02632000000000     0.64730000000000
C      C      0.92068000000000     0.97368000000000     0.35270000000000
C      C      0.92068000000000     0.52632000000000     0.85270000000000
C      C      0.07932000000000     0.47368000000000     0.14730000000000
H      H      0.09980000000000     0.09830000000000     0.68360000000000
H      H      0.90020000000000     0.90170000000000     0.31640000000000
H      H      0.90020000000000     0.59830000000000     0.81640000000000
H      H      0.09980000000000     0.40170000000000     0.18360000000000
C      C      0.24022000000000     0.98000000000000     0.61615000000000
C      C      0.75978000000000     0.02000000000000     0.38385000000000
C      C      0.75978000000000     0.48000000000000     0.88385000000000
C      C      0.24022000000000     0.52000000000000     0.11615000000000
H      H      0.36960000000000     0.01980000000000     0.62990000000000
H      H      0.63040000000000     0.98020000000000     0.37010000000000
H      H      0.63040000000000     0.51980000000000     0.87010000000000
H      H      0.36960000000000     0.48020000000000     0.12990000000000
C      C      0.55373000000000     0.50245000000000     0.36375000000000
C      C      0.44627000000000     0.49755000000000     0.63625000000000
C      C      0.44627000000000     0.00245000000000     0.13625000000000
C      C      0.55373000000000     0.99755000000000     0.86375000000000
C      C      0.75132000000000     0.52442000000000     0.35424000000000
C      C      0.24868000000000     0.47558000000000     0.64576000000000
C      C      0.24868000000000     0.02442000000000     0.14576000000000
C      C      0.75132000000000     0.97558000000000     0.85424000000000
H      H      0.83360000000000     0.59750000000000     0.38180000000000
H      H      0.16640000000000     0.40250000000000     0.61820000000000
H      H      0.16640000000000     0.09750000000000     0.11820000000000
H      H      0.83360000000000     0.90250000000000     0.88180000000000
C      C      0.82871000000000     0.44080000000000     0.30499000000000
C      C      0.17129000000000     0.55920000000000     0.69501000000000
C      C      0.17129000000000     0.94080000000000     0.19501000000000
C      C      0.82871000000000     0.05920000000000     0.80499000000000
H      H      0.96250000000000     0.45890000000000     0.29860000000000
H      H      0.03750000000000     0.54110000000000     0.70140000000000
H      H      0.03750000000000     0.95890000000000     0.20140000000000
H      H      0.96250000000000     0.04110000000000     0.79860000000000
C      C      0.71196000000000     0.33125000000000     0.26518000000000
C      C      0.28804000000000     0.66875000000000     0.73482000000000
C      C      0.28804000000000     0.83125000000000     0.23482000000000
C      C      0.71196000000000     0.16875000000000     0.76518000000000
H      H      0.76540000000000     0.27340000000000     0.23170000000000
H      H      0.23460000000000     0.72660000000000     0.76830000000000
H      H      0.23460000000000     0.77340000000000     0.26830000000000
H      H      0.76540000000000     0.22660000000000     0.73170000000000
C      C      0.51591000000000     0.30617000000000     0.27446000000000
C      C      0.48409000000000     0.69383000000000     0.72554000000000
C      C      0.48409000000000     0.80617000000000     0.22554000000000
C      C      0.51591000000000     0.19383000000000     0.77446000000000
H      H      0.43540000000000     0.23060000000000     0.24730000000000
H      H      0.56460000000000     0.76940000000000     0.75270000000000
H      H      0.56460000000000     0.73060000000000     0.25270000000000
H      H      0.43540000000000     0.26940000000000     0.74730000000000
C      C      0.43755000000000     0.39075000000000     0.32302000000000
C      C      0.56245000000000     0.60925000000000     0.67698000000000
C      C      0.56245000000000     0.89075000000000     0.17698000000000
C      C      0.43755000000000     0.10925000000000     0.82302000000000
H      H      0.30320000000000     0.37290000000000     0.32880000000000
H      H      0.69680000000000     0.62710000000000     0.67120000000000
H      H      0.69680000000000     0.87290000000000     0.17120000000000
H      H      0.30320000000000     0.12710000000000     0.82880000000000
