data_default
_cell_volume          1280.000000
_symmetry_space_group_name_H-M 'P 1'
_symmetry_Int_Tables_number 1
loop_
_symmetry_equiv_pos_site_id
_symmetry_equiv_pos_as_xyz
1 x,y,z
_cell_length_a        16.0000000000
_cell_length_b         4.0000000000
_cell_length_c        20.0000000000
_cell_angle_alpha        90.0000
_cell_angle_beta        90.0000
_cell_angle_gamma        90.0000
_cell_formula_units_Z 1
loop_
_atom_site_label
_atom_site_type_symbol
_atom_site_fract_x
_atom_site_fract_y
_atom_site_fract_z
H      H      0.24042000000000     0.75000000000000     0.02036000000000
H      H      0.75958000000000     0.25000000000000     0.97964000000000
H      H      0.75958000000000     0.25000000000000     0.47964000000000
H      H      0.24042000000000     0.75000000000000     0.52036000000000
C      C      0.20077000000000     0.75000000000000     0.06530000000000
C      C      0.79923000000000     0.25000000000000     0.93470000000000
C      C      0.79923000000000     0.25000000000000     0.43470000000000
C      C      0.20077000000000     0.75000000000000     0.56530000000000
C      C      0.10009000000000     0.75000000000000     0.17915000000000
C      C      0.89991000000000     0.25000000000000     0.82085000000000
C      C      0.89991000000000     0.25000000000000     0.32085000000000
C      C      0.10009000000000     0.75000000000000     0.67915000000000
C      C      0.23734000000000     0.75000000000000     0.12863000000000
C      C      0.76266000000000     0.25000000000000     0.87137000000000
C      C      0.76266000000000     0.25000000000000     0.37137000000000
C      C      0.23734000000000     0.75000000000000     0.62863000000000
C      C      0.11414000000000     0.75000000000000     0.05879000000000
C      C      0.88586000000000     0.25000000000000     0.94121000000000
C      C      0.88586000000000     0.25000000000000     0.44121000000000
C      C      0.11414000000000     0.75000000000000     0.55879000000000
C      C      0.06268000000000     0.75000000000000     0.11574000000000
C      C      0.93732000000000     0.25000000000000     0.88426000000000
C      C      0.93732000000000     0.25000000000000     0.38426000000000
C      C      0.06268000000000     0.75000000000000     0.61574000000000
C      C      0.18684000000000     0.75000000000000     0.18544000000000
C      C      0.81316000000000     0.25000000000000     0.81456000000000
C      C      0.81316000000000     0.25000000000000     0.31456000000000
C      C      0.18684000000000     0.75000000000000     0.68544000000000
H      H      0.30579000000000     0.75000000000000     0.13370000000000
H      H      0.69421000000000     0.25000000000000     0.86630000000000
H      H      0.69421000000000     0.25000000000000     0.36630000000000
H      H      0.30579000000000     0.75000000000000     0.63370000000000
H      H      0.08565000000000     0.75000000000000     0.00870000000000
H      H      0.91435000000000     0.25000000000000     0.99130000000000
H      H      0.91435000000000     0.25000000000000     0.49130000000000
H      H      0.08565000000000     0.75000000000000     0.50870000000000
C      C      0.97250000000000     0.75000000000000     0.10680000000000
C      C      0.02750000000000     0.25000000000000     0.89320000000000
C      C      0.02750000000000     0.25000000000000     0.39320000000000
C      C      0.97250000000000     0.75000000000000     0.60680000000000
H      H      0.21543000000000     0.75000000000000     0.23546000000000
H      H      0.78457000000000     0.25000000000000     0.76454000000000
H      H      0.78457000000000     0.25000000000000     0.26454000000000
H      H      0.21543000000000     0.75000000000000     0.73546000000000
H      H      0.06095000000000     0.75000000000000     0.22439000000000
H      H      0.93905000000000     0.25000000000000     0.77561000000000
H      H      0.93905000000000     0.25000000000000     0.27561000000000
H      H      0.06095000000000     0.75000000000000     0.72439000000000
C      C      0.91588000000000     0.75000000000000     0.15608000000000
C      C      0.08412000000000     0.25000000000000     0.84392000000000
C      C      0.08412000000000     0.25000000000000     0.34392000000000
C      C      0.91588000000000     0.75000000000000     0.65608000000000
H      H      0.95118000000000     0.75000000000000     0.05411000000000
H      H      0.04882000000000     0.25000000000000     0.94589000000000
H      H      0.04882000000000     0.25000000000000     0.44589000000000
H      H      0.95118000000000     0.75000000000000     0.55411000000000
B      B      0.82227000000000     0.75000000000000     0.14319000000000
B      B      0.17773000000000     0.25000000000000     0.85681000000000
B      B      0.17773000000000     0.25000000000000     0.35681000000000
B      B      0.82227000000000     0.75000000000000     0.64319000000000
H      H      0.93045000000000     0.75000000000000     0.20958000000000
H      H      0.06955000000000     0.25000000000000     0.79042000000000
H      H      0.06955000000000     0.25000000000000     0.29042000000000
H      H      0.93045000000000     0.75000000000000     0.70958000000000
O      O      0.78391000000000     0.75000000000000     0.07987000000000
O      O      0.21609000000000     0.25000000000000     0.92013000000000
O      O      0.21609000000000     0.25000000000000     0.42013000000000
O      O      0.78391000000000     0.75000000000000     0.57987000000000
O      O      0.76251000000000     0.75000000000000     0.19478000000000
O      O      0.23749000000000     0.25000000000000     0.80522000000000
O      O      0.23749000000000     0.25000000000000     0.30522000000000
O      O      0.76251000000000     0.75000000000000     0.69478000000000
H      H      0.47481000000000     0.75000000000000     0.16431000000000
H      H      0.52519000000000     0.25000000000000     0.83569000000000
H      H      0.52519000000000     0.25000000000000     0.33569000000000
H      H      0.47481000000000     0.75000000000000     0.66431000000000
C      C      0.68515000000000     0.75000000000000     0.16280000000000
C      C      0.31485000000000     0.25000000000000     0.83720000000000
C      C      0.31485000000000     0.25000000000000     0.33720000000000
C      C      0.68515000000000     0.75000000000000     0.66280000000000
C      C      0.55190000000000     0.75000000000000     0.07569000000000
C      C      0.44810000000000     0.25000000000000     0.92431000000000
C      C      0.44810000000000     0.25000000000000     0.42431000000000
C      C      0.55190000000000     0.75000000000000     0.57569000000000
C      C      0.60585000000000     0.75000000000000     0.19021000000000
C      C      0.39415000000000     0.25000000000000     0.80979000000000
C      C      0.39415000000000     0.25000000000000     0.30979000000000
C      C      0.60585000000000     0.75000000000000     0.69021000000000
C      C      0.69826000000000     0.75000000000000     0.09240000000000
C      C      0.30174000000000     0.25000000000000     0.90760000000000
C      C      0.30174000000000     0.25000000000000     0.40760000000000
C      C      0.69826000000000     0.75000000000000     0.59240000000000
C      C      0.63238000000000     0.75000000000000     0.04769000000000
C      C      0.36762000000000     0.25000000000000     0.95231000000000
C      C      0.36762000000000     0.25000000000000     0.45231000000000
C      C      0.63238000000000     0.75000000000000     0.54769000000000
C      C      0.53906000000000     0.75000000000000     0.14467000000000
C      C      0.46094000000000     0.25000000000000     0.85533000000000
C      C      0.46094000000000     0.25000000000000     0.35533000000000
C      C      0.53906000000000     0.75000000000000     0.64467000000000
H      H      0.59561000000000     0.75000000000000     0.24444000000000
H      H      0.40439000000000     0.25000000000000     0.75556000000000
H      H      0.40439000000000     0.25000000000000     0.25556000000000
H      H      0.59561000000000     0.75000000000000     0.74444000000000
H      H      0.49760000000000     0.75000000000000     0.04192000000000
H      H      0.50240000000000     0.25000000000000     0.95808000000000
H      H      0.50240000000000     0.25000000000000     0.45808000000000
H      H      0.49760000000000     0.75000000000000     0.54192000000000
H      H      0.64233000000000     0.75000000000000     0.99343000000000
H      H      0.35767000000000     0.25000000000000     0.00657000000000
H      H      0.35767000000000     0.25000000000000     0.50657000000000
H      H      0.64233000000000     0.75000000000000     0.49343000000000
