data_default
_cell_volume          1201.215903
_symmetry_space_group_name_H-M 'P 1'
_symmetry_Int_Tables_number 1
loop_
_symmetry_equiv_pos_site_id
_symmetry_equiv_pos_as_xyz
1 x,y,z
_cell_length_a        13.8760000000
_cell_length_b        12.0300000000
_cell_length_c         7.1960000000
_cell_angle_alpha        90.0000
_cell_angle_beta        90.0000
_cell_angle_gamma        90.0000
_cell_formula_units_Z 1
loop_
_atom_site_label
_atom_site_type_symbol
_atom_site_fract_x
_atom_site_fract_y
_atom_site_fract_z
H      H      0.82275000000000     0.52608000000000     0.57310000000000
H      H      0.67725000000000     0.47392000000000     0.07310000000000
H      H      0.32275000000000     0.97392000000000     0.42690000000000
H      H      0.17725000000000     0.02608000000000     0.92690000000000
C      C      0.78350000000000     0.45644000000000     0.51841000000000
C      C      0.71650000000000     0.54356000000000     0.01841000000000
C      C      0.28350000000000     0.04356000000000     0.48159000000000
C      C      0.21650000000000     0.95644000000000     0.98159000000000
C      C      0.82982000000000     0.36027000000000     0.45683000000000
C      C      0.67018000000000     0.63973000000000     0.95683000000000
C      C      0.32982000000000     0.13973000000000     0.54317000000000
C      C      0.17018000000000     0.86027000000000     0.04317000000000
H      H      0.90709000000000     0.35547000000000     0.46415000000000
H      H      0.59291000000000     0.64453000000000     0.96415000000000
H      H      0.40709000000000     0.14453000000000     0.53585000000000
H      H      0.09291000000000     0.85547000000000     0.03585000000000
C      C      0.77821000000000     0.27111000000000     0.38663000000000
C      C      0.72179000000000     0.72889000000000     0.88663000000000
C      C      0.27821000000000     0.22889000000000     0.61337000000000
C      C      0.22179000000000     0.77111000000000     0.11337000000000
H      H      0.81611000000000     0.19826000000000     0.34037000000000
H      H      0.68389000000000     0.80174000000000     0.84037000000000
H      H      0.31611000000000     0.30174000000000     0.65963000000000
H      H      0.18389000000000     0.69826000000000     0.15963000000000
C      C      0.67787000000000     0.27384000000000     0.37465000000000
C      C      0.82213000000000     0.72616000000000     0.87465000000000
C      C      0.17787000000000     0.22616000000000     0.62535000000000
C      C      0.32213000000000     0.77384000000000     0.12535000000000
H      H      0.63714000000000     0.20518000000000     0.32045000000000
H      H      0.86286000000000     0.79482000000000     0.82045000000000
H      H      0.13714000000000     0.29482000000000     0.67955000000000
H      H      0.36286000000000     0.70518000000000     0.17955000000000
C      C      0.63345000000000     0.36886000000000     0.43568000000000
C      C      0.86655000000000     0.63114000000000     0.93568000000000
C      C      0.13345000000000     0.13114000000000     0.56432000000000
C      C      0.36655000000000     0.86886000000000     0.06432000000000
C      C      0.68499000000000     0.45788000000000     0.50578000000000
C      C      0.81501000000000     0.54212000000000     0.00578000000000
C      C      0.18499000000000     0.04212000000000     0.49422000000000
C      C      0.31501000000000     0.95788000000000     0.99422000000000
O      O      0.62220000000000     0.53974000000000     0.55495000000000
O      O      0.87780000000000     0.46026000000000     0.05495000000000
O      O      0.12220000000000     0.96026000000000     0.44505000000000
O      O      0.37780000000000     0.03974000000000     0.94505000000000
B      B      0.53161000000000     0.49952000000000     0.51395000000000
B      B      0.96839000000000     0.50048000000000     0.01395000000000
B      B      0.03161000000000     0.00048000000000     0.48605000000000
B      B      0.46839000000000     0.99952000000000     0.98605000000000
O      O      0.53784000000000     0.39382000000000     0.44007000000000
O      O      0.96216000000000     0.60618000000000     0.94007000000000
O      O      0.03784000000000     0.10618000000000     0.55993000000000
O      O      0.46216000000000     0.89382000000000     0.05993000000000
C      C      0.43704000000000     0.56415000000000     0.54654000000000
C      C      0.06296000000000     0.43585000000000     0.04654000000000
C      C      0.93704000000000     0.93585000000000     0.45346000000000
C      C      0.56296000000000     0.06415000000000     0.95346000000000
H      H      0.44162000000000     0.64638000000000     0.60533000000000
H      H      0.05838000000000     0.35362000000000     0.10533000000000
H      H      0.94162000000000     0.85362000000000     0.39467000000000
H      H      0.55838000000000     0.14638000000000     0.89467000000000
C      C      0.35175000000000     0.52036000000000     0.50375000000000
C      C      0.14825000000000     0.47964000000000     0.00375000000000
C      C      0.85175000000000     0.97964000000000     0.49625000000000
C      C      0.64825000000000     0.02036000000000     0.99625000000000
H      H      0.35083000000000     0.43784000000000     0.44528000000000
H      H      0.14917000000000     0.56216000000000     0.94528000000000
H      H      0.85083000000000     0.06216000000000     0.55472000000000
H      H      0.64917000000000     0.93784000000000     0.05472000000000
C      C      0.25534000000000     0.57073000000000     0.52601000000000
C      C      0.24466000000000     0.42927000000000     0.02601000000000
C      C      0.75534000000000     0.92927000000000     0.47399000000000
C      C      0.74466000000000     0.07073000000000     0.97399000000000
C      C      0.24091000000000     0.67694000000000     0.59911000000000
C      C      0.25909000000000     0.32306000000000     0.09911000000000
C      C      0.74091000000000     0.82306000000000     0.40089000000000
C      C      0.75909000000000     0.17694000000000     0.90089000000000
H      H      0.30147000000000     0.72625000000000     0.64237000000000
H      H      0.19853000000000     0.27375000000000     0.14237000000000
H      H      0.80147000000000     0.77375000000000     0.35763000000000
H      H      0.69853000000000     0.22625000000000     0.85763000000000
C      C      0.14919000000000     0.71996000000000     0.61681000000000
C      C      0.35081000000000     0.28004000000000     0.11681000000000
C      C      0.64919000000000     0.78004000000000     0.38319000000000
C      C      0.85081000000000     0.21996000000000     0.88319000000000
H      H      0.13935000000000     0.80191000000000     0.67340000000000
H      H      0.36065000000000     0.19809000000000     0.17340000000000
H      H      0.63935000000000     0.69809000000000     0.32660000000000
H      H      0.86065000000000     0.30191000000000     0.82660000000000
C      C      0.06968000000000     0.65796000000000     0.56195000000000
C      C      0.43032000000000     0.34204000000000     0.06195000000000
C      C      0.56968000000000     0.84204000000000     0.43805000000000
C      C      0.93032000000000     0.15796000000000     0.93805000000000
H      H      0.99832000000000     0.69177000000000     0.57596000000000
H      H      0.50168000000000     0.30823000000000     0.07596000000000
H      H      0.49832000000000     0.80823000000000     0.42404000000000
H      H      0.00168000000000     0.19177000000000     0.92404000000000
C      C      0.08284000000000     0.55268000000000     0.48933000000000
C      C      0.41716000000000     0.44732000000000     0.98933000000000
C      C      0.58284000000000     0.94732000000000     0.51067000000000
C      C      0.91716000000000     0.05268000000000     0.01067000000000
H      H      0.02177000000000     0.50397000000000     0.44642000000000
H      H      0.47823000000000     0.49603000000000     0.94642000000000
H      H      0.52177000000000     0.99603000000000     0.55358000000000
H      H      0.97823000000000     0.00397000000000     0.05358000000000
C      C      0.17498000000000     0.50965000000000     0.47168000000000
C      C      0.32502000000000     0.49035000000000     0.97168000000000
C      C      0.67498000000000     0.99035000000000     0.52832000000000
C      C      0.82502000000000     0.00965000000000     0.02832000000000
H      H      0.18469000000000     0.42761000000000     0.41501000000000
H      H      0.31531000000000     0.57239000000000     0.91501000000000
H      H      0.68469000000000     0.07239000000000     0.58499000000000
H      H      0.81531000000000     0.92761000000000     0.08499000000000
