data_default
_cell_volume           507.732005
_symmetry_space_group_name_H-M 'P 1'
_symmetry_Int_Tables_number 1
loop_
_symmetry_equiv_pos_site_id
_symmetry_equiv_pos_as_xyz
1 x,y,z
_cell_length_a         5.4560000000
_cell_length_b         7.1258000000
_cell_length_c        13.0595000000
_cell_angle_alpha        90.0000
_cell_angle_beta        89.9994
_cell_angle_gamma        90.0000
_cell_formula_units_Z 1
loop_
_atom_site_label
_atom_site_type_symbol
_atom_site_fract_x
_atom_site_fract_y
_atom_site_fract_z
H      H      0.28113000000000     0.26108000000000     0.67532000000000
H      H      0.71887000000000     0.73892000000000     0.32468000000000
H      H      0.71887000000000     0.76108000000000     0.82468000000000
H      H      0.28113000000000     0.23892000000000     0.17532000000000
C      C      0.12269000000000     0.19007000000000     0.70976000000000
C      C      0.87731000000000     0.80993000000000     0.29024000000000
C      C      0.87731000000000     0.69007000000000     0.79024000000000
C      C      0.12269000000000     0.30993000000000     0.20976000000000
H      H      0.10535000000000     0.05012000000000     0.67532000000000
H      H      0.89465000000000     0.94988000000000     0.32468000000000
H      H      0.89465000000000     0.55012000000000     0.82468000000000
H      H      0.10535000000000     0.44988000000000     0.17532000000000
C      C      0.87731000000000     0.30994000000000     0.70977000000000
C      C      0.12269000000000     0.69006000000000     0.29023000000000
C      C      0.12269000000000     0.80994000000000     0.79023000000000
C      C      0.87731000000000     0.19006000000000     0.20977000000000
C      C      0.10975000000000     0.19639000000000     0.82635000000000
C      C      0.89025000000000     0.80361000000000     0.17365000000000
C      C      0.89025000000000     0.69639000000000     0.67365000000000
C      C      0.10975000000000     0.30361000000000     0.32635000000000
H      H      0.89464000000000     0.44988000000000     0.67532000000000
H      H      0.10536000000000     0.55012000000000     0.32468000000000
H      H      0.10536000000000     0.94988000000000     0.82468000000000
H      H      0.89464000000000     0.05012000000000     0.17532000000000
C      C      0.89026000000000     0.30361000000000     0.82635000000000
C      C      0.10974000000000     0.69639000000000     0.17365000000000
C      C      0.10974000000000     0.80361000000000     0.67365000000000
C      C      0.89026000000000     0.19639000000000     0.32635000000000
H      H      0.71887000000000     0.23893000000000     0.67532000000000
H      H      0.28113000000000     0.76107000000000     0.32468000000000
H      H      0.28113000000000     0.73893000000000     0.82468000000000
H      H      0.71887000000000     0.26107000000000     0.17532000000000
C      C      0.17320000000000     0.16540000000000     0.92527000000000
C      C      0.82680000000000     0.83460000000000     0.07473000000000
C      C      0.82680000000000     0.66540000000000     0.57473000000000
C      C      0.17320000000000     0.33460000000000     0.42527000000000
C      C      0.82680000000000     0.33461000000000     0.92526000000000
C      C      0.17320000000000     0.66539000000000     0.07474000000000
C      C      0.17320000000000     0.83461000000000     0.57474000000000
C      C      0.82680000000000     0.16539000000000     0.42526000000000
O      O      0.00000000000000     0.25000000000000     0.98680000000000
O      O      0.00000000000000     0.75000000000000     0.01320000000000
O      O      0.00000000000000     0.75000000000000     0.51320000000000
O      O      0.00000000000000     0.25000000000000     0.48680000000000
H      H      0.31894000000000     0.09420000000000     0.96618000000000
H      H      0.68106000000000     0.90580000000000     0.03382000000000
H      H      0.68106000000000     0.59420000000000     0.53382000000000
H      H      0.31894000000000     0.40580000000000     0.46618000000000
H      H      0.68107000000000     0.40580000000000     0.96617000000000
H      H      0.31893000000000     0.59420000000000     0.03383000000000
H      H      0.31893000000000     0.90580000000000     0.53383000000000
H      H      0.68107000000000     0.09420000000000     0.46617000000000
