data_default
_cell_volume           502.012191
_symmetry_space_group_name_H-M 'P 1'
_symmetry_Int_Tables_number 1
loop_
_symmetry_equiv_pos_site_id
_symmetry_equiv_pos_as_xyz
1 x,y,z
_cell_length_a         8.4581000000
_cell_length_b         5.3676000000
_cell_length_c        12.8565000000
_cell_angle_alpha        90.0000
_cell_angle_beta        59.3255
_cell_angle_gamma        90.0000
_cell_formula_units_Z 1
loop_
_atom_site_label
_atom_site_type_symbol
_atom_site_fract_x
_atom_site_fract_y
_atom_site_fract_z
H      H      0.65753000000000     0.73819000000000     0.03684000000000
H      H      0.34247000000000     0.26181000000000     0.96316000000000
H      H      0.34247000000000     0.23819000000000     0.46316000000000
H      H      0.65753000000000     0.76181000000000     0.53684000000000
C      C      0.61397000000000     0.90358000000000     0.09526000000000
C      C      0.38603000000000     0.09642000000000     0.90474000000000
C      C      0.38603000000000     0.40358000000000     0.40474000000000
C      C      0.61397000000000     0.59642000000000     0.59526000000000
H      H      0.46375000000000     0.89926000000000     0.15374000000000
H      H      0.53625000000000     0.10074000000000     0.84626000000000
H      H      0.53625000000000     0.39926000000000     0.34626000000000
H      H      0.46375000000000     0.60074000000000     0.65374000000000
C      C      0.69403000000000     0.15922000000000     0.02577000000000
C      C      0.30597000000000     0.84078000000000     0.97423000000000
C      C      0.30597000000000     0.65922000000000     0.47423000000000
C      C      0.69403000000000     0.34078000000000     0.52577000000000
C      C      0.72083000000000     0.95552000000000     0.15910000000000
C      C      0.27917000000000     0.04448000000000     0.84090000000000
C      C      0.27917000000000     0.45552000000000     0.34090000000000
C      C      0.72083000000000     0.54448000000000     0.65910000000000
H      H      0.78362000000000     0.14082000000000     0.92740000000000
H      H      0.21638000000000     0.85918000000000     0.07260000000000
H      H      0.21638000000000     0.64082000000000     0.57260000000000
H      H      0.78362000000000     0.35918000000000     0.42740000000000
C      C      0.79245000000000     0.18418000000000     0.09695000000000
C      C      0.20755000000000     0.81582000000000     0.90305000000000
C      C      0.20755000000000     0.68418000000000     0.40305000000000
C      C      0.79245000000000     0.31582000000000     0.59695000000000
H      H      0.58984000000000     0.30188000000000     0.04431000000000
H      H      0.41016000000000     0.69812000000000     0.95569000000000
H      H      0.41016000000000     0.80188000000000     0.45569000000000
H      H      0.58984000000000     0.19812000000000     0.54431000000000
C      C      0.78722000000000     0.92205000000000     0.23434000000000
C      C      0.21278000000000     0.07795000000000     0.76566000000000
C      C      0.21278000000000     0.42205000000000     0.26566000000000
C      C      0.78722000000000     0.57795000000000     0.73434000000000
C      C      0.90022000000000     0.28293000000000     0.13625000000000
C      C      0.09978000000000     0.71707000000000     0.86375000000000
C      C      0.09978000000000     0.78293000000000     0.36375000000000
C      C      0.90022000000000     0.21707000000000     0.63625000000000
O      O      0.89790000000000     0.12279000000000     0.22093000000000
O      O      0.10210000000000     0.87721000000000     0.77907000000000
O      O      0.10210000000000     0.62279000000000     0.27907000000000
O      O      0.89790000000000     0.37721000000000     0.72093000000000
H      H      0.77569000000000     0.78374000000000     0.29929000000000
H      H      0.22431000000000     0.21626000000000     0.70071000000000
H      H      0.22431000000000     0.28374000000000     0.20071000000000
H      H      0.77569000000000     0.71626000000000     0.79929000000000
H      H      0.98378000000000     0.44824000000000     0.11868000000000
H      H      0.01622000000000     0.55176000000000     0.88132000000000
H      H      0.01622000000000     0.94824000000000     0.38132000000000
H      H      0.98378000000000     0.05176000000000     0.61868000000000
