data_default
_cell_volume           976.603886
_symmetry_space_group_name_H-M 'P 1'
_symmetry_Int_Tables_number 1
loop_
_symmetry_equiv_pos_site_id
_symmetry_equiv_pos_as_xyz
1 x,y,z
_cell_length_a         5.3090000000
_cell_length_b        12.6480000000
_cell_length_c        14.5440000000
_cell_angle_alpha        90.0000
_cell_angle_beta        90.0000
_cell_angle_gamma        90.0000
_cell_formula_units_Z 1
loop_
_atom_site_label
_atom_site_type_symbol
_atom_site_fract_x
_atom_site_fract_y
_atom_site_fract_z
O      O      0.97530000000000     0.70144000000000     0.38244000000000
O      O      0.02470000000000     0.29856000000000     0.61756000000000
O      O      0.52470000000000     0.29856000000000     0.88244000000000
O      O      0.47530000000000     0.79856000000000     0.61756000000000
O      O      0.02470000000000     0.20144000000000     0.11756000000000
O      O      0.52470000000000     0.20144000000000     0.38244000000000
O      O      0.47530000000000     0.70144000000000     0.11756000000000
O      O      0.97530000000000     0.79856000000000     0.88244000000000
C      C      0.85846000000000     0.61934000000000     0.33591000000000
C      C      0.14154000000000     0.38066000000000     0.66409000000000
C      C      0.64154000000000     0.38066000000000     0.83591000000000
C      C      0.35846000000000     0.88066000000000     0.66409000000000
C      C      0.14154000000000     0.11934000000000     0.16409000000000
C      C      0.64154000000000     0.11934000000000     0.33591000000000
C      C      0.35846000000000     0.61934000000000     0.16409000000000
C      C      0.85846000000000     0.88066000000000     0.83591000000000
H      H      0.71474000000000     0.63938000000000     0.30067000000000
H      H      0.28526000000000     0.36062000000000     0.69933000000000
H      H      0.78526000000000     0.36062000000000     0.80067000000000
H      H      0.21474000000000     0.86062000000000     0.69933000000000
H      H      0.28526000000000     0.13938000000000     0.19933000000000
H      H      0.78526000000000     0.13938000000000     0.30067000000000
H      H      0.21474000000000     0.63938000000000     0.19933000000000
H      H      0.71474000000000     0.86062000000000     0.80067000000000
C      C      0.99148000000000     0.53080000000000     0.35076000000000
C      C      0.00852000000000     0.46920000000000     0.64924000000000
C      C      0.50852000000000     0.46920000000000     0.85076000000000
C      C      0.49148000000000     0.96920000000000     0.64924000000000
C      C      0.00852000000000     0.03080000000000     0.14924000000000
C      C      0.50852000000000     0.03080000000000     0.35076000000000
C      C      0.49148000000000     0.53080000000000     0.14924000000000
C      C      0.99148000000000     0.96920000000000     0.85076000000000
C      C      0.06744000000000     0.41512000000000     0.34519000000000
C      C      0.93256000000000     0.58488000000000     0.65481000000000
C      C      0.43256000000000     0.58488000000000     0.84519000000000
C      C      0.56744000000000     0.08488000000000     0.65481000000000
C      C      0.93256000000000     0.91512000000000     0.15481000000000
C      C      0.43256000000000     0.91512000000000     0.34519000000000
C      C      0.56744000000000     0.41512000000000     0.15481000000000
C      C      0.06744000000000     0.08488000000000     0.84519000000000
H      H      0.12260000000000     0.38817000000000     0.28194000000000
H      H      0.87740000000000     0.61183000000000     0.71806000000000
H      H      0.37740000000000     0.61183000000000     0.78194000000000
H      H      0.62260000000000     0.11183000000000     0.71806000000000
H      H      0.87740000000000     0.88817000000000     0.21806000000000
H      H      0.37740000000000     0.88817000000000     0.28194000000000
H      H      0.62260000000000     0.38817000000000     0.21806000000000
H      H      0.12260000000000     0.11183000000000     0.78194000000000
H      H      0.94536000000000     0.36423000000000     0.37148000000000
H      H      0.05464000000000     0.63577000000000     0.62852000000000
H      H      0.55464000000000     0.63577000000000     0.87148000000000
H      H      0.44536000000000     0.13577000000000     0.62852000000000
H      H      0.05464000000000     0.86423000000000     0.12852000000000
H      H      0.55464000000000     0.86423000000000     0.37148000000000
H      H      0.44536000000000     0.36423000000000     0.12852000000000
H      H      0.94536000000000     0.13577000000000     0.87148000000000
C      C      0.29429000000000     0.44438000000000     0.41033000000000
C      C      0.70571000000000     0.55562000000000     0.58967000000000
C      C      0.20571000000000     0.55562000000000     0.91033000000000
C      C      0.79429000000000     0.05562000000000     0.58967000000000
C      C      0.70571000000000     0.94438000000000     0.08967000000000
C      C      0.20571000000000     0.94438000000000     0.41033000000000
C      C      0.79429000000000     0.44438000000000     0.08967000000000
C      C      0.29429000000000     0.05562000000000     0.91033000000000
H      H      0.46126000000000     0.43332000000000     0.38417000000000
H      H      0.53874000000000     0.56668000000000     0.61583000000000
H      H      0.03874000000000     0.56668000000000     0.88417000000000
H      H      0.96126000000000     0.06668000000000     0.61583000000000
H      H      0.53874000000000     0.93332000000000     0.11583000000000
H      H      0.03874000000000     0.93332000000000     0.38417000000000
H      H      0.96126000000000     0.43332000000000     0.11583000000000
H      H      0.46126000000000     0.06668000000000     0.88417000000000
H      H      0.29275000000000     0.41094000000000     0.47138000000000
H      H      0.70725000000000     0.58906000000000     0.52862000000000
H      H      0.20725000000000     0.58906000000000     0.97138000000000
H      H      0.79275000000000     0.08906000000000     0.52862000000000
H      H      0.70725000000000     0.91094000000000     0.02862000000000
H      H      0.20725000000000     0.91094000000000     0.47138000000000
H      H      0.79275000000000     0.41094000000000     0.02862000000000
H      H      0.29275000000000     0.08906000000000     0.97138000000000
C      C      0.19614000000000     0.55685000000000     0.40819000000000
C      C      0.80386000000000     0.44315000000000     0.59181000000000
C      C      0.30386000000000     0.44315000000000     0.90819000000000
C      C      0.69614000000000     0.94315000000000     0.59181000000000
C      C      0.80386000000000     0.05685000000000     0.09181000000000
C      C      0.30386000000000     0.05685000000000     0.40819000000000
C      C      0.69614000000000     0.55685000000000     0.09181000000000
C      C      0.19614000000000     0.94315000000000     0.90819000000000
C      C      0.18382000000000     0.66029000000000     0.42678000000000
C      C      0.81618000000000     0.33971000000000     0.57322000000000
C      C      0.31618000000000     0.33971000000000     0.92678000000000
C      C      0.68382000000000     0.83971000000000     0.57322000000000
C      C      0.81618000000000     0.16029000000000     0.07322000000000
C      C      0.31618000000000     0.16029000000000     0.42678000000000
C      C      0.68382000000000     0.66029000000000     0.07322000000000
C      C      0.18382000000000     0.83971000000000     0.92678000000000
H      H      0.28044000000000     0.70893000000000     0.46247000000000
H      H      0.71956000000000     0.29107000000000     0.53753000000000
H      H      0.21956000000000     0.29107000000000     0.96247000000000
H      H      0.78044000000000     0.79107000000000     0.53753000000000
H      H      0.71956000000000     0.20893000000000     0.03753000000000
H      H      0.21956000000000     0.20893000000000     0.46247000000000
H      H      0.78044000000000     0.70893000000000     0.03753000000000
H      H      0.28044000000000     0.79107000000000     0.96247000000000
