data_default
_cell_volume           472.042250
_symmetry_space_group_name_H-M 'P 1'
_symmetry_Int_Tables_number 1
loop_
_symmetry_equiv_pos_site_id
_symmetry_equiv_pos_as_xyz
1 x,y,z
_cell_length_a         4.9540000000
_cell_length_b         9.8450000000
_cell_length_c         9.6790000000
_cell_angle_alpha        90.0000
_cell_angle_beta        90.5680
_cell_angle_gamma        90.0000
_cell_formula_units_Z 1
loop_
_atom_site_label
_atom_site_type_symbol
_atom_site_fract_x
_atom_site_fract_y
_atom_site_fract_z
C      C      0.95920000000000     0.32091000000000     0.00660000000000
C      C      0.04080000000000     0.67909000000000     0.99340000000000
C      C      0.04080000000000     0.82091000000000     0.49340000000000
C      C      0.95920000000000     0.17909000000000     0.50660000000000
C      C      0.77360000000000     0.35112000000000     0.10330000000000
C      C      0.22640000000000     0.64888000000000     0.89670000000000
C      C      0.22640000000000     0.85112000000000     0.39670000000000
C      C      0.77360000000000     0.14888000000000     0.60330000000000
C      C      0.59360000000000     0.43665000000000     0.19610000000000
C      C      0.40640000000000     0.56335000000000     0.80390000000000
C      C      0.40640000000000     0.93665000000000     0.30390000000000
C      C      0.59360000000000     0.06335000000000     0.69610000000000
C      C      0.48240000000000     0.29832000000000     0.25610000000000
C      C      0.51760000000000     0.70168000000000     0.74390000000000
C      C      0.51760000000000     0.79832000000000     0.24390000000000
C      C      0.48240000000000     0.20168000000000     0.75610000000000
C      C      0.67640000000000     0.22770000000000     0.15870000000000
C      C      0.32360000000000     0.77230000000000     0.84130000000000
C      C      0.32360000000000     0.72770000000000     0.34130000000000
C      C      0.67640000000000     0.27230000000000     0.65870000000000
C      C      0.80580000000000     0.12520000000000     0.09480000000000
C      C      0.19420000000000     0.87480000000000     0.90520000000000
C      C      0.19420000000000     0.62520000000000     0.40520000000000
C      C      0.80580000000000     0.37480000000000     0.59480000000000
O      O      0.98210000000000     0.18150000000000     0.00010000000000
O      O      0.01790000000000     0.81850000000000     0.99990000000000
O      O      0.01790000000000     0.68150000000000     0.49990000000000
O      O      0.98210000000000     0.31850000000000     0.50010000000000
H      H      0.08293000000000     0.36906000000000     0.94211000000000
H      H      0.91707000000000     0.63094000000000     0.05789000000000
H      H      0.91707000000000     0.86906000000000     0.55789000000000
H      H      0.08293000000000     0.13094000000000     0.44211000000000
H      H      0.69000000000000     0.49116000000000     0.26400000000000
H      H      0.31000000000000     0.50884000000000     0.73600000000000
H      H      0.31000000000000     0.99116000000000     0.23600000000000
H      H      0.69000000000000     0.00884000000000     0.76400000000000
H      H      0.45959000000000     0.49138000000000     0.14764000000000
H      H      0.54041000000000     0.50862000000000     0.85236000000000
H      H      0.54041000000000     0.99138000000000     0.35236000000000
H      H      0.45959000000000     0.00862000000000     0.64764000000000
H      H      0.51756000000000     0.28444000000000     0.35429000000000
H      H      0.48244000000000     0.71556000000000     0.64571000000000
H      H      0.48244000000000     0.78444000000000     0.14571000000000
H      H      0.51756000000000     0.21556000000000     0.85429000000000
H      H      0.29043000000000     0.28251000000000     0.23616000000000
H      H      0.70957000000000     0.71749000000000     0.76384000000000
H      H      0.70957000000000     0.78251000000000     0.26384000000000
H      H      0.29043000000000     0.21749000000000     0.73616000000000
H      H      0.81035000000000     0.02770000000000     0.09274000000000
H      H      0.18965000000000     0.97230000000000     0.90726000000000
H      H      0.18965000000000     0.52770000000000     0.40726000000000
H      H      0.81035000000000     0.47230000000000     0.59274000000000
