data_default
_cell_volume           466.278283
_symmetry_space_group_name_H-M 'P 1'
_symmetry_Int_Tables_number 1
loop_
_symmetry_equiv_pos_site_id
_symmetry_equiv_pos_as_xyz
1 x,y,z
_cell_length_a         8.7640000000
_cell_length_b         5.2680000000
_cell_length_c        12.1380000000
_cell_angle_alpha        90.0000
_cell_angle_beta       123.6900
_cell_angle_gamma        90.0000
_cell_formula_units_Z 1
loop_
_atom_site_label
_atom_site_type_symbol
_atom_site_fract_x
_atom_site_fract_y
_atom_site_fract_z
O      O      0.65180000000000     0.80730000000000     0.97430000000000
O      O      0.34820000000000     0.19270000000000     0.02570000000000
O      O      0.34820000000000     0.30730000000000     0.52570000000000
O      O      0.65180000000000     0.69270000000000     0.47430000000000
C      C      0.60900000000000     0.02480000000000     0.90260000000000
C      C      0.39100000000000     0.97520000000000     0.09740000000000
C      C      0.39100000000000     0.52480000000000     0.59740000000000
C      C      0.60900000000000     0.47520000000000     0.40260000000000
C      C      0.77230000000000     0.67070000000000     0.96090000000000
C      C      0.22770000000000     0.32930000000000     0.03910000000000
C      C      0.22770000000000     0.17070000000000     0.53910000000000
C      C      0.77230000000000     0.82930000000000     0.46090000000000
H      H      0.81560000000000     0.49490000000000     0.01330000000000
H      H      0.18440000000000     0.50510000000000     0.98670000000000
H      H      0.18440000000000     0.99490000000000     0.48670000000000
H      H      0.81560000000000     0.00510000000000     0.51330000000000
H      H      0.51460000000000     0.14730000000000     0.90610000000000
H      H      0.48540000000000     0.85270000000000     0.09390000000000
H      H      0.48540000000000     0.64730000000000     0.59390000000000
H      H      0.51460000000000     0.35270000000000     0.40610000000000
C      C      0.80540000000000     0.79990000000000     0.88170000000000
C      C      0.19460000000000     0.20010000000000     0.11830000000000
C      C      0.19460000000000     0.29990000000000     0.61830000000000
C      C      0.80540000000000     0.70010000000000     0.38170000000000
C      C      0.70100000000000     0.02630000000000     0.84450000000000
C      C      0.29900000000000     0.97370000000000     0.15550000000000
C      C      0.29900000000000     0.52630000000000     0.65550000000000
C      C      0.70100000000000     0.47370000000000     0.34450000000000
C      C      0.76980000000000     0.11770000000000     0.76040000000000
C      C      0.23020000000000     0.88230000000000     0.23960000000000
C      C      0.23020000000000     0.61770000000000     0.73960000000000
C      C      0.76980000000000     0.38230000000000     0.26040000000000
C      C      0.88630000000000     0.86470000000000     0.80200000000000
C      C      0.11370000000000     0.13530000000000     0.19800000000000
C      C      0.11370000000000     0.36470000000000     0.69800000000000
C      C      0.88630000000000     0.63530000000000     0.30200000000000
H      H      0.85060000000000     0.29010000000000     0.79440000000000
H      H      0.14940000000000     0.70990000000000     0.20560000000000
H      H      0.14940000000000     0.79010000000000     0.70560000000000
H      H      0.85060000000000     0.20990000000000     0.29440000000000
H      H      0.66600000000000     0.13420000000000     0.65550000000000
H      H      0.33400000000000     0.86580000000000     0.34450000000000
H      H      0.33400000000000     0.63420000000000     0.84450000000000
H      H      0.66600000000000     0.36580000000000     0.15550000000000
H      H      0.84880000000000     0.73750000000000     0.72070000000000
H      H      0.15120000000000     0.26250000000000     0.27930000000000
H      H      0.15120000000000     0.23750000000000     0.77930000000000
H      H      0.84880000000000     0.76250000000000     0.22070000000000
H      H      0.03350000000000     0.89330000000000     0.85960000000000
H      H      0.96650000000000     0.10670000000000     0.14040000000000
H      H      0.96650000000000     0.39330000000000     0.64040000000000
H      H      0.03350000000000     0.60670000000000     0.35960000000000
