data_default
_cell_volume           577.243204
_symmetry_space_group_name_H-M 'P 1'
_symmetry_Int_Tables_number 1
loop_
_symmetry_equiv_pos_site_id
_symmetry_equiv_pos_as_xyz
1 x,y,z
_cell_length_a        12.7280000000
_cell_length_b         4.2110000000
_cell_length_c        15.2310000000
_cell_angle_alpha        90.0000
_cell_angle_beta        45.0000
_cell_angle_gamma        90.0000
_cell_formula_units_Z 1
loop_
_atom_site_label
_atom_site_type_symbol
_atom_site_fract_x
_atom_site_fract_y
_atom_site_fract_z
C      C      0.71972000000000     0.18104000000000     0.15978000000000
C      C      0.28028000000000     0.81896000000000     0.84022000000000
C      C      0.28028000000000     0.68104000000000     0.34022000000000
C      C      0.71972000000000     0.31896000000000     0.65978000000000
C      C      0.68512000000000     0.24837000000000     0.31942000000000
C      C      0.31488000000000     0.75163000000000     0.68058000000000
C      C      0.31488000000000     0.74837000000000     0.18058000000000
C      C      0.68512000000000     0.25163000000000     0.81942000000000
C      C      0.79118000000000     0.24162000000000     0.19204000000000
C      C      0.20882000000000     0.75838000000000     0.80796000000000
C      C      0.20882000000000     0.74162000000000     0.30796000000000
C      C      0.79118000000000     0.25838000000000     0.69204000000000
C      C      0.55606000000000     0.19130000000000     0.35633000000000
C      C      0.44394000000000     0.80870000000000     0.64367000000000
C      C      0.44394000000000     0.69130000000000     0.14367000000000
C      C      0.55606000000000     0.30870000000000     0.85633000000000
O      O      0.57069000000000     0.14674000000000     0.25962000000000
O      O      0.42931000000000     0.85326000000000     0.74038000000000
O      O      0.42931000000000     0.64674000000000     0.24038000000000
O      O      0.57069000000000     0.35326000000000     0.75962000000000
C      C      0.79320000000000     0.31785000000000     0.32769000000000
C      C      0.20680000000000     0.68215000000000     0.67231000000000
C      C      0.20680000000000     0.81785000000000     0.17231000000000
C      C      0.79320000000000     0.18215000000000     0.82769000000000
C      C      0.91759000000000     0.30974000000000     0.17832000000000
C      C      0.08241000000000     0.69026000000000     0.82168000000000
C      C      0.08241000000000     0.80974000000000     0.32168000000000
C      C      0.91759000000000     0.19026000000000     0.67832000000000
H      H      0.77459000000000     0.16110000000000     0.06388000000000
H      H      0.22541000000000     0.83890000000000     0.93612000000000
H      H      0.22541000000000     0.66110000000000     0.43612000000000
H      H      0.77459000000000     0.33890000000000     0.56388000000000
H      H      0.45025000000000     0.18137000000000     0.45342000000000
H      H      0.54975000000000     0.81863000000000     0.54658000000000
H      H      0.54975000000000     0.68137000000000     0.04658000000000
H      H      0.45025000000000     0.31863000000000     0.95342000000000
H      H      0.80195000000000     0.12505000000000     0.37109000000000
H      H      0.19805000000000     0.87495000000000     0.62891000000000
H      H      0.19805000000000     0.62505000000000     0.12891000000000
H      H      0.80195000000000     0.37495000000000     0.87109000000000
H      H      0.77642000000000     0.55233000000000     0.36803000000000
H      H      0.22358000000000     0.44767000000000     0.63197000000000
H      H      0.22358000000000     0.05233000000000     0.13197000000000
H      H      0.77642000000000     0.94767000000000     0.86803000000000
H      H      0.99722000000000     0.11214000000000     0.13653000000000
H      H      0.00278000000000     0.88786000000000     0.86347000000000
H      H      0.00278000000000     0.61214000000000     0.36347000000000
H      H      0.99722000000000     0.38786000000000     0.63653000000000
H      H      0.97184000000000     0.53950000000000     0.13347000000000
H      H      0.02816000000000     0.46050000000000     0.86653000000000
H      H      0.02816000000000     0.03950000000000     0.36653000000000
H      H      0.97184000000000     0.96050000000000     0.63347000000000
