data_default
_cell_volume           543.066151
_symmetry_space_group_name_H-M 'P 1'
_symmetry_Int_Tables_number 1
loop_
_symmetry_equiv_pos_site_id
_symmetry_equiv_pos_as_xyz
1 x,y,z
_cell_length_a         6.4710000000
_cell_length_b        12.3270000000
_cell_length_c         7.4320000000
_cell_angle_alpha        90.0000
_cell_angle_beta        66.3550
_cell_angle_gamma        90.0000
_cell_formula_units_Z 1
loop_
_atom_site_label
_atom_site_type_symbol
_atom_site_fract_x
_atom_site_fract_y
_atom_site_fract_z
H      H      0.13584000000000     0.40391000000000     0.20352000000000
H      H      0.63584000000000     0.90391000000000     0.20352000000000
H      H      0.13584000000000     0.59609000000000     0.70352000000000
H      H      0.63584000000000     0.09609000000000     0.70352000000000
C      C      0.07351000000000     0.36158000000000     0.11014000000000
C      C      0.57351000000000     0.86158000000000     0.11014000000000
C      C      0.07351000000000     0.63842000000000     0.61014000000000
C      C      0.57351000000000     0.13842000000000     0.61014000000000
C      C      0.04724000000000     0.25806000000000     0.07078000000000
C      C      0.54724000000000     0.75806000000000     0.07078000000000
C      C      0.04724000000000     0.74194000000000     0.57078000000000
C      C      0.54724000000000     0.24194000000000     0.57078000000000
C      C      0.05334000000000     0.13487000000000     0.07988000000000
C      C      0.55334000000000     0.63487000000000     0.07988000000000
C      C      0.05334000000000     0.86513000000000     0.57988000000000
C      C      0.55334000000000     0.36513000000000     0.57988000000000
C      C      0.95262000000000     0.25747000000000     0.92903000000000
C      C      0.45262000000000     0.75747000000000     0.92903000000000
C      C      0.95262000000000     0.74253000000000     0.42903000000000
C      C      0.45262000000000     0.24253000000000     0.42903000000000
C      C      0.94757000000000     0.13423000000000     0.92144000000000
C      C      0.44757000000000     0.63423000000000     0.92144000000000
C      C      0.94757000000000     0.86577000000000     0.42144000000000
C      C      0.44757000000000     0.36577000000000     0.42144000000000
C      C      0.92545000000000     0.36065000000000     0.88835000000000
C      C      0.42545000000000     0.86065000000000     0.88835000000000
C      C      0.92545000000000     0.63935000000000     0.38835000000000
C      C      0.42545000000000     0.13935000000000     0.38835000000000
H      H      0.86277000000000     0.40222000000000     0.79444000000000
H      H      0.36277000000000     0.90222000000000     0.79444000000000
H      H      0.86277000000000     0.59778000000000     0.29444000000000
H      H      0.36277000000000     0.09778000000000     0.29444000000000
O      O      0.99920000000000     0.42496000000000     0.99884000000000
O      O      0.49920000000000     0.92496000000000     0.99884000000000
O      O      0.99920000000000     0.57504000000000     0.49884000000000
O      O      0.49920000000000     0.07504000000000     0.49884000000000
H      H      0.22017000000000     0.09933000000000     0.03040000000000
H      H      0.72017000000000     0.59933000000000     0.03040000000000
H      H      0.22017000000000     0.90067000000000     0.53040000000000
H      H      0.72017000000000     0.40067000000000     0.53040000000000
H      H      0.94696000000000     0.09933000000000     0.21990000000000
H      H      0.44696000000000     0.59933000000000     0.21990000000000
H      H      0.94696000000000     0.90067000000000     0.71990000000000
H      H      0.44696000000000     0.40067000000000     0.71990000000000
H      H      0.78106000000000     0.09829000000000     0.97138000000000
H      H      0.28106000000000     0.59829000000000     0.97138000000000
H      H      0.78106000000000     0.90171000000000     0.47138000000000
H      H      0.28106000000000     0.40171000000000     0.47138000000000
H      H      0.05429000000000     0.09830000000000     0.78189000000000
H      H      0.55429000000000     0.59830000000000     0.78189000000000
H      H      0.05429000000000     0.90170000000000     0.28189000000000
H      H      0.55429000000000     0.40170000000000     0.28189000000000
