data_default
_cell_volume           230.954843
_symmetry_space_group_name_H-M 'P 1'
_symmetry_Int_Tables_number 1
loop_
_symmetry_equiv_pos_site_id
_symmetry_equiv_pos_as_xyz
1 x,y,z
_cell_length_a         5.3200000000
_cell_length_b         8.2680000000
_cell_length_c         5.2520000000
_cell_angle_alpha        90.0000
_cell_angle_beta        91.2880
_cell_angle_gamma        90.0000
_cell_formula_units_Z 1
loop_
_atom_site_label
_atom_site_type_symbol
_atom_site_fract_x
_atom_site_fract_y
_atom_site_fract_z
O      O      0.49702000000000     0.86219000000000     0.20366000000000
O      O      0.50298000000000     0.36219000000000     0.79634000000000
C      C      0.42044000000000     0.97479000000000     0.06511000000000
C      C      0.57956000000000     0.47479000000000     0.93489000000000
H      H      0.50835000000000     0.98594000000000     0.87618000000000
H      H      0.49165000000000     0.48594000000000     0.12382000000000
C      C      0.38716000000000     0.86501000000000     0.41018000000000
C      C      0.61284000000000     0.36501000000000     0.58982000000000
H      H      0.44262000000000     0.77127000000000     0.55211000000000
H      H      0.55738000000000     0.27127000000000     0.44789000000000
C      C      0.24465000000000     0.05734000000000     0.18441000000000
C      C      0.75535000000000     0.55734000000000     0.81559000000000
C      C      0.22563000000000     0.98723000000000     0.41047000000000
C      C      0.77437000000000     0.48723000000000     0.58953000000000
C      C      0.04690000000000     0.18553000000000     0.23385000000000
C      C      0.95310000000000     0.68553000000000     0.76615000000000
H      H      0.87526000000000     0.17051000000000     0.11213000000000
H      H      0.12474000000000     0.67051000000000     0.88787000000000
H      H      0.12567000000000     0.30990000000000     0.23705000000000
H      H      0.87433000000000     0.80990000000000     0.76295000000000
C      C      0.02751000000000     0.10379000000000     0.50458000000000
C      C      0.97249000000000     0.60379000000000     0.49542000000000
H      H      0.84522000000000     0.04318000000000     0.53904000000000
H      H      0.15478000000000     0.54318000000000     0.46096000000000
H      H      0.10198000000000     0.17922000000000     0.66381000000000
H      H      0.89802000000000     0.67922000000000     0.33619000000000
