data_default
_cell_volume           257.065157
_symmetry_space_group_name_H-M 'P 1'
_symmetry_Int_Tables_number 1
loop_
_symmetry_equiv_pos_site_id
_symmetry_equiv_pos_as_xyz
1 x,y,z
_cell_length_a         6.3236770000
_cell_length_b         5.4319030000
_cell_length_c         8.0608280000
_cell_angle_alpha        74.4034
_cell_angle_beta        96.9890
_cell_angle_gamma       105.1177
_cell_formula_units_Z 1
loop_
_atom_site_label
_atom_site_type_symbol
_atom_site_fract_x
_atom_site_fract_y
_atom_site_fract_z
O      O      0.68196500000000     0.84146000000000     0.65428500000000
O      O      0.31803500000000     0.15854000000000     0.34571500000000
C      C      0.79431000000000     0.10224700000000     0.61000100000000
C      C      0.20569000000000     0.89775300000000     0.38999900000000
C      C      0.99595700000000     0.12240200000000     0.69447700000000
C      C      0.00404300000000     0.87759800000000     0.30552300000000
C      C      0.00834200000000     0.86826700000000     0.79321100000000
C      C      0.99165800000000     0.13173300000000     0.20678900000000
C      C      0.81414400000000     0.69822700000000     0.76689300000000
C      C      0.18585600000000     0.30177300000000     0.23310700000000
H      H      0.74122200000000     0.49111500000000     0.80947100000000
H      H      0.25877800000000     0.50888500000000     0.19052900000000
H      H      0.70496600000000     0.23141700000000     0.52199700000000
H      H      0.29503400000000     0.76858300000000     0.47800300000000
C      C      0.22668100000000     0.24858600000000     0.75345800000000
C      C      0.77331900000000     0.75141400000000     0.24654200000000
C      C      0.24064700000000     0.96439300000000     0.86371000000000
C      C      0.75935300000000     0.03560700000000     0.13629000000000
H      H      0.34347800000000     0.33409400000000     0.65247300000000
H      H      0.65652200000000     0.66590600000000     0.34752700000000
H      H      0.23776900000000     0.39049400000000     0.82931600000000
H      H      0.76223100000000     0.60950600000000     0.17068400000000
H      H      0.25985000000000     0.94399500000000     0.00265800000000
H      H      0.74015000000000     0.05600500000000     0.99734200000000
H      H      0.36535900000000     0.88780600000000     0.82569600000000
H      H      0.63464100000000     0.11219400000000     0.17430400000000
