data_default
_cell_volume           256.386175
_symmetry_space_group_name_H-M 'P 1'
_symmetry_Int_Tables_number 1
loop_
_symmetry_equiv_pos_site_id
_symmetry_equiv_pos_as_xyz
1 x,y,z
_cell_length_a         6.0848700000
_cell_length_b         7.8111940000
_cell_length_c         5.4393760000
_cell_angle_alpha        90.0000
_cell_angle_beta        97.3907
_cell_angle_gamma        90.0000
_cell_formula_units_Z 1
loop_
_atom_site_label
_atom_site_type_symbol
_atom_site_fract_x
_atom_site_fract_y
_atom_site_fract_z
O      O      0.01210600000000     0.14257300000000     0.70977900000000
O      O      0.98789400000000     0.64257300000000     0.29022100000000
C      C      0.93379300000000     0.01182500000000     0.55168500000000
C      C      0.06620700000000     0.51182500000000     0.44831500000000
C      C      0.76058100000000     0.93694200000000     0.64626000000000
C      C      0.23941900000000     0.43694200000000     0.35374000000000
C      C      0.73130500000000     0.02342700000000     0.86797700000000
C      C      0.26869500000000     0.52342700000000     0.13202300000000
C      C      0.88712900000000     0.14932100000000     0.90395900000000
C      C      0.11287100000000     0.64932100000000     0.09604100000000
H      H      0.93516100000000     0.24769100000000     0.03863300000000
H      H      0.06483900000000     0.74769100000000     0.96136700000000
H      H      0.02068300000000     0.99581700000000     0.39308100000000
H      H      0.97931700000000     0.49581700000000     0.60691900000000
C      C      0.56987200000000     0.81453500000000     0.66749400000000
C      C      0.43012800000000     0.31453500000000     0.33250600000000
C      C      0.53702300000000     0.91120400000000     0.91518500000000
C      C      0.46297700000000     0.41120400000000     0.08481500000000
H      H      0.43007100000000     0.82487700000000     0.52139800000000
H      H      0.56992900000000     0.32487700000000     0.47860200000000
H      H      0.61551700000000     0.68006300000000     0.69198400000000
H      H      0.38448300000000     0.18006300000000     0.30801600000000
H      H      0.56384400000000     0.83203700000000     0.08130500000000
H      H      0.43615600000000     0.33203700000000     0.91869500000000
H      H      0.37851600000000     0.97678300000000     0.91040000000000
H      H      0.62148400000000     0.47678300000000     0.08960000000000
