data_default
_cell_volume           231.520463
_symmetry_space_group_name_H-M 'P 1'
_symmetry_Int_Tables_number 1
loop_
_symmetry_equiv_pos_site_id
_symmetry_equiv_pos_as_xyz
1 x,y,z
_cell_length_a         5.1004000000
_cell_length_b         7.9263000000
_cell_length_c         5.7485000000
_cell_angle_alpha        90.0000
_cell_angle_beta        94.9760
_cell_angle_gamma        90.0000
_cell_formula_units_Z 1
loop_
_atom_site_label
_atom_site_type_symbol
_atom_site_fract_x
_atom_site_fract_y
_atom_site_fract_z
O      O      0.31349000000000     0.14994000000000     0.96248000000000
O      O      0.68651000000000     0.64994000000000     0.03752000000000
C      C      0.46765000000000     0.01920000000000     0.04783000000000
C      C      0.53235000000000     0.51920000000000     0.95217000000000
C      C      0.36727000000000     0.94764000000000     0.23324000000000
C      C      0.63273000000000     0.44764000000000     0.76676000000000
C      C      0.13098000000000     0.04024000000000     0.26820000000000
C      C      0.86902000000000     0.54024000000000     0.73180000000000
C      C      0.10937000000000     0.15960000000000     0.10084000000000
C      C      0.89063000000000     0.65960000000000     0.89916000000000
C      C      0.34383000000000     0.84783000000000     0.46238000000000
C      C      0.65617000000000     0.34783000000000     0.53762000000000
C      C      0.06085000000000     0.91319000000000     0.45819000000000
C      C      0.93915000000000     0.41319000000000     0.54181000000000
H      H      0.63436000000000     0.99382000000000     0.96171000000000
H      H      0.36564000000000     0.49382000000000     0.03829000000000
H      H      0.35965000000000     0.71768000000000     0.44552000000000
H      H      0.64035000000000     0.21768000000000     0.55448000000000
H      H      0.46816000000000     0.88954000000000     0.60366000000000
H      H      0.53184000000000     0.38954000000000     0.39634000000000
H      H      0.91752000000000     0.82544000000000     0.40201000000000
H      H      0.08248000000000     0.32544000000000     0.59799000000000
H      H      0.01414000000000     0.96848000000000     0.61338000000000
H      H      0.98586000000000     0.46848000000000     0.38662000000000
H      H      0.97104000000000     0.25377000000000     0.05986000000000
H      H      0.02896000000000     0.75377000000000     0.94014000000000
