data_default
_cell_volume           454.460805
_symmetry_space_group_name_H-M 'P 1'
_symmetry_Int_Tables_number 1
loop_
_symmetry_equiv_pos_site_id
_symmetry_equiv_pos_as_xyz
1 x,y,z
_cell_length_a         7.2021000000
_cell_length_b         7.9088000000
_cell_length_c         7.9786000000
_cell_angle_alpha        90.0000
_cell_angle_beta        90.0000
_cell_angle_gamma        90.0000
_cell_formula_units_Z 1
loop_
_atom_site_label
_atom_site_type_symbol
_atom_site_fract_x
_atom_site_fract_y
_atom_site_fract_z
O      O      0.61301000000000     0.18796000000000     0.66307000000000
O      O      0.88699000000000     0.81204000000000     0.16307000000000
O      O      0.11301000000000     0.31204000000000     0.33693000000000
O      O      0.38699000000000     0.68796000000000     0.83693000000000
C      C      0.49888000000000     0.21701000000000     0.52939000000000
C      C      0.00112000000000     0.78299000000000     0.02939000000000
C      C      0.99888000000000     0.28299000000000     0.47061000000000
C      C      0.50112000000000     0.71701000000000     0.97061000000000
C      C      0.44582000000000     0.07053000000000     0.45779000000000
C      C      0.05418000000000     0.92947000000000     0.95779000000000
C      C      0.94582000000000     0.42947000000000     0.54221000000000
C      C      0.55418000000000     0.57053000000000     0.04221000000000
C      C      0.53313000000000     0.93825000000000     0.55355000000000
C      C      0.96687000000000     0.06175000000000     0.05355000000000
C      C      0.03313000000000     0.56175000000000     0.44645000000000
C      C      0.46687000000000     0.43825000000000     0.94645000000000
C      C      0.63125000000000     0.01643000000000     0.67458000000000
C      C      0.86875000000000     0.98357000000000     0.17458000000000
C      C      0.13125000000000     0.48357000000000     0.32542000000000
C      C      0.36875000000000     0.51643000000000     0.82542000000000
C      C      0.33380000000000     0.93824000000000     0.35620000000000
C      C      0.16620000000000     0.06176000000000     0.85620000000000
C      C      0.83380000000000     0.56176000000000     0.64380000000000
C      C      0.66620000000000     0.43824000000000     0.14380000000000
C      C      0.46552000000000     0.80360000000000     0.42625000000000
C      C      0.03448000000000     0.19640000000000     0.92625000000000
C      C      0.96552000000000     0.69640000000000     0.57375000000000
C      C      0.53448000000000     0.30360000000000     0.07375000000000
H      H      0.46977000000000     0.34287000000000     0.50229000000000
H      H      0.03023000000000     0.65713000000000     0.00229000000000
H      H      0.96977000000000     0.15713000000000     0.49771000000000
H      H      0.53023000000000     0.84287000000000     0.99771000000000
H      H      0.34060000000000     0.95373000000000     0.22691000000000
H      H      0.15940000000000     0.04627000000000     0.72691000000000
H      H      0.84060000000000     0.54627000000000     0.77309000000000
H      H      0.65940000000000     0.45373000000000     0.27309000000000
H      H      0.19624000000000     0.92486000000000     0.39355000000000
H      H      0.30376000000000     0.07514000000000     0.89355000000000
H      H      0.69624000000000     0.57514000000000     0.60645000000000
H      H      0.80376000000000     0.42486000000000     0.10645000000000
H      H      0.56661000000000     0.76279000000000     0.34243000000000
H      H      0.93339000000000     0.23721000000000     0.84243000000000
H      H      0.06661000000000     0.73721000000000     0.65757000000000
H      H      0.43339000000000     0.26279000000000     0.15757000000000
H      H      0.39943000000000     0.70002000000000     0.48001000000000
H      H      0.10057000000000     0.29998000000000     0.98001000000000
H      H      0.89943000000000     0.79998000000000     0.51999000000000
H      H      0.60057000000000     0.20002000000000     0.01999000000000
H      H      0.71484000000000     0.97152000000000     0.77110000000000
H      H      0.78516000000000     0.02848000000000     0.27110000000000
H      H      0.21484000000000     0.52848000000000     0.22890000000000
H      H      0.28516000000000     0.47152000000000     0.72890000000000
