data_default
_cell_volume           946.562470
_symmetry_space_group_name_H-M 'P 1'
_symmetry_Int_Tables_number 1
loop_
_symmetry_equiv_pos_site_id
_symmetry_equiv_pos_as_xyz
1 x,y,z
_cell_length_a        25.0290200000
_cell_length_b         7.3413200000
_cell_length_c         5.3038200000
_cell_angle_alpha        90.0000
_cell_angle_beta        76.2340
_cell_angle_gamma        90.0000
_cell_formula_units_Z 1
loop_
_atom_site_label
_atom_site_type_symbol
_atom_site_fract_x
_atom_site_fract_y
_atom_site_fract_z
O      O      0.29063900000000     0.26075600000000     0.24774500000000
O      O      0.79063900000000     0.76075600000000     0.24774500000000
O      O      0.70936100000000     0.73924400000000     0.75225500000000
O      O      0.20936100000000     0.23924400000000     0.75225500000000
O      O      0.70936100000000     0.26075600000000     0.25225500000000
O      O      0.20936100000000     0.76075600000000     0.25225500000000
O      O      0.29063900000000     0.73924400000000     0.74774500000000
O      O      0.79063900000000     0.23924400000000     0.74774500000000
C      C      0.33145900000000     0.17692300000000     0.33220300000000
C      C      0.83145900000000     0.67692300000000     0.33220300000000
C      C      0.66854100000000     0.82307700000000     0.66779700000000
C      C      0.16854100000000     0.32307700000000     0.66779700000000
C      C      0.66854100000000     0.17692300000000     0.16779700000000
C      C      0.16854100000000     0.67692300000000     0.16779700000000
C      C      0.33145900000000     0.82307700000000     0.83220300000000
C      C      0.83145900000000     0.32307700000000     0.83220300000000
H      H      0.31913200000000     0.10966200000000     0.51562000000000
H      H      0.81913200000000     0.60966200000000     0.51562000000000
H      H      0.68086800000000     0.89033800000000     0.48438000000000
H      H      0.18086800000000     0.39033800000000     0.48438000000000
H      H      0.68086800000000     0.10966200000000     0.98438000000000
H      H      0.18086800000000     0.60966200000000     0.98438000000000
H      H      0.31913200000000     0.89033800000000     0.01562000000000
H      H      0.81913200000000     0.39033800000000     0.01562000000000
C      C      0.31212100000000     0.34048400000000     0.01489900000000
C      C      0.81212100000000     0.84048400000000     0.01489900000000
C      C      0.68787900000000     0.65951600000000     0.98510100000000
C      C      0.18787900000000     0.15951600000000     0.98510100000000
C      C      0.68787900000000     0.34048400000000     0.48510100000000
C      C      0.18787900000000     0.84048400000000     0.48510100000000
C      C      0.31212100000000     0.65951600000000     0.51489900000000
C      C      0.81212100000000     0.15951600000000     0.51489900000000
H      H      0.28360400000000     0.41182000000000     0.92952500000000
H      H      0.78360400000000     0.91182000000000     0.92952500000000
H      H      0.71639600000000     0.58818000000000     0.07047500000000
H      H      0.21639600000000     0.08818000000000     0.07047500000000
H      H      0.71639600000000     0.41182000000000     0.57047500000000
H      H      0.21639600000000     0.91182000000000     0.57047500000000
H      H      0.28360400000000     0.58818000000000     0.42952500000000
H      H      0.78360400000000     0.08818000000000     0.42952500000000
C      C      0.37837400000000     0.20199600000000     0.15365000000000
C      C      0.87837400000000     0.70199600000000     0.15365000000000
C      C      0.62162600000000     0.79800400000000     0.84635000000000
C      C      0.12162600000000     0.29800400000000     0.84635000000000
C      C      0.62162600000000     0.20199600000000     0.34635000000000
C      C      0.12162600000000     0.70199600000000     0.34635000000000
C      C      0.37837400000000     0.79800400000000     0.65365000000000
C      C      0.87837400000000     0.29800400000000     0.65365000000000
C      C      0.36596800000000     0.30758000000000     0.95163100000000
C      C      0.86596800000000     0.80758000000000     0.95163100000000
C      C      0.63403200000000     0.69242000000000     0.04836900000000
C      C      0.13403200000000     0.19242000000000     0.04836900000000
C      C      0.63403200000000     0.30758000000000     0.54836900000000
C      C      0.13403200000000     0.80758000000000     0.54836900000000
C      C      0.36596800000000     0.69242000000000     0.45163100000000
C      C      0.86596800000000     0.19242000000000     0.45163100000000
C      C      0.43923500000000     0.19068500000000     0.01998400000000
C      C      0.93923500000000     0.69068500000000     0.01998400000000
C      C      0.56076500000000     0.80931500000000     0.98001600000000
C      C      0.06076500000000     0.30931500000000     0.98001600000000
C      C      0.56076500000000     0.19068500000000     0.48001600000000
C      C      0.06076500000000     0.69068500000000     0.48001600000000
C      C      0.43923500000000     0.80931500000000     0.51998400000000
C      C      0.93923500000000     0.30931500000000     0.51998400000000
H      H      0.45443200000000     0.05560900000000     0.96017300000000
H      H      0.95443200000000     0.55560900000000     0.96017300000000
H      H      0.54556800000000     0.94439100000000     0.03982700000000
H      H      0.04556800000000     0.44439100000000     0.03982700000000
H      H      0.54556800000000     0.05560900000000     0.53982700000000
H      H      0.04556800000000     0.55560900000000     0.53982700000000
H      H      0.45443200000000     0.94439100000000     0.46017300000000
H      H      0.95443200000000     0.44439100000000     0.46017300000000
H      H      0.46677200000000     0.25451300000000     0.12271400000000
H      H      0.96677200000000     0.75451300000000     0.12271400000000
H      H      0.53322800000000     0.74548700000000     0.87728600000000
H      H      0.03322800000000     0.24548700000000     0.87728600000000
H      H      0.53322800000000     0.25451300000000     0.37728600000000
H      H      0.03322800000000     0.75451300000000     0.37728600000000
H      H      0.46677200000000     0.74548700000000     0.62271400000000
H      H      0.96677200000000     0.24548700000000     0.62271400000000
C      C      0.42536900000000     0.31025300000000     0.79585800000000
C      C      0.92536900000000     0.81025300000000     0.79585800000000
C      C      0.57463100000000     0.68974700000000     0.20414200000000
C      C      0.07463100000000     0.18974700000000     0.20414200000000
C      C      0.57463100000000     0.31025300000000     0.70414200000000
C      C      0.07463100000000     0.81025300000000     0.70414200000000
C      C      0.42536900000000     0.68974700000000     0.29585800000000
C      C      0.92536900000000     0.18974700000000     0.29585800000000
H      H      0.43265600000000     0.24452700000000     0.60822700000000
H      H      0.93265600000000     0.74452700000000     0.60822700000000
H      H      0.56734400000000     0.75547300000000     0.39177300000000
H      H      0.06734400000000     0.25547300000000     0.39177300000000
H      H      0.56734400000000     0.24452700000000     0.89177300000000
H      H      0.06734400000000     0.74452700000000     0.89177300000000
H      H      0.43265600000000     0.75547300000000     0.10822700000000
H      H      0.93265600000000     0.25547300000000     0.10822700000000
H      H      0.44464800000000     0.44311800000000     0.77255000000000
H      H      0.94464800000000     0.94311800000000     0.77255000000000
H      H      0.55535200000000     0.55688200000000     0.22745000000000
H      H      0.05535200000000     0.05688200000000     0.22745000000000
H      H      0.55535200000000     0.44311800000000     0.72745000000000
H      H      0.05535200000000     0.94311800000000     0.72745000000000
H      H      0.44464800000000     0.55688200000000     0.27255000000000
H      H      0.94464800000000     0.05688200000000     0.27255000000000
