data_default
_cell_volume           903.821603
_symmetry_space_group_name_H-M 'P 1'
_symmetry_Int_Tables_number 1
loop_
_symmetry_equiv_pos_site_id
_symmetry_equiv_pos_as_xyz
1 x,y,z
_cell_length_a        12.5026000000
_cell_length_b        14.1044000000
_cell_length_c         5.1254000000
_cell_angle_alpha        90.0000
_cell_angle_beta        90.0000
_cell_angle_gamma        90.0000
_cell_formula_units_Z 1
loop_
_atom_site_label
_atom_site_type_symbol
_atom_site_fract_x
_atom_site_fract_y
_atom_site_fract_z
H      H      0.93040000000000     0.02864000000000     0.20573000000000
H      H      0.06960000000000     0.97136000000000     0.79427000000000
H      H      0.56960000000000     0.97136000000000     0.70573000000000
H      H      0.43040000000000     0.47136000000000     0.79427000000000
H      H      0.06960000000000     0.52864000000000     0.29427000000000
H      H      0.56960000000000     0.52864000000000     0.20573000000000
H      H      0.43040000000000     0.02864000000000     0.29427000000000
H      H      0.93040000000000     0.47136000000000     0.70573000000000
H      H      0.88672000000000     0.11544000000000     0.59512000000000
H      H      0.11328000000000     0.88456000000000     0.40488000000000
H      H      0.61328000000000     0.88456000000000     0.09512000000000
H      H      0.38672000000000     0.38456000000000     0.40488000000000
H      H      0.11328000000000     0.61544000000000     0.90488000000000
H      H      0.61328000000000     0.61544000000000     0.59512000000000
H      H      0.38672000000000     0.11544000000000     0.90488000000000
H      H      0.88672000000000     0.38456000000000     0.09512000000000
C      C      0.93365000000000     0.14985000000000     0.47169000000000
C      C      0.06635000000000     0.85015000000000     0.52831000000000
C      C      0.56635000000000     0.85015000000000     0.97169000000000
C      C      0.43365000000000     0.35015000000000     0.52831000000000
C      C      0.06635000000000     0.64985000000000     0.02831000000000
C      C      0.56635000000000     0.64985000000000     0.47169000000000
C      C      0.43365000000000     0.14985000000000     0.02831000000000
C      C      0.93365000000000     0.35015000000000     0.97169000000000
C      C      0.96238000000000     0.09275000000000     0.21553000000000
C      C      0.03762000000000     0.90725000000000     0.78447000000000
C      C      0.53762000000000     0.90725000000000     0.71553000000000
C      C      0.46238000000000     0.40725000000000     0.78447000000000
C      C      0.03762000000000     0.59275000000000     0.28447000000000
C      C      0.53762000000000     0.59275000000000     0.21553000000000
C      C      0.46238000000000     0.09275000000000     0.28447000000000
C      C      0.96238000000000     0.40725000000000     0.71553000000000
C      C      0.05242000000000     0.14727000000000     0.53573000000000
C      C      0.94758000000000     0.85273000000000     0.46427000000000
C      C      0.44758000000000     0.85273000000000     0.03573000000000
C      C      0.55242000000000     0.35273000000000     0.46427000000000
C      C      0.94758000000000     0.64727000000000     0.96427000000000
C      C      0.44758000000000     0.64727000000000     0.53573000000000
C      C      0.55242000000000     0.14727000000000     0.96427000000000
C      C      0.05242000000000     0.35273000000000     0.03573000000000
C      C      0.07813000000000     0.09619000000000     0.30655000000000
C      C      0.92187000000000     0.90381000000000     0.69345000000000
C      C      0.42187000000000     0.90381000000000     0.80655000000000
C      C      0.57813000000000     0.40381000000000     0.69345000000000
C      C      0.92187000000000     0.59619000000000     0.19345000000000
C      C      0.42187000000000     0.59619000000000     0.30655000000000
C      C      0.57813000000000     0.09619000000000     0.19345000000000
C      C      0.07813000000000     0.40381000000000     0.80655000000000
C      C      0.18372000000000     0.08209000000000     0.30694000000000
C      C      0.81628000000000     0.91791000000000     0.69306000000000
C      C      0.31628000000000     0.91791000000000     0.80694000000000
C      C      0.68372000000000     0.41791000000000     0.69306000000000
C      C      0.81628000000000     0.58209000000000     0.19306000000000
C      C      0.31628000000000     0.58209000000000     0.30694000000000
C      C      0.68372000000000     0.08209000000000     0.19306000000000
C      C      0.18372000000000     0.41791000000000     0.80694000000000
C      C      0.14351000000000     0.16201000000000     0.66552000000000
C      C      0.85649000000000     0.83799000000000     0.33448000000000
C      C      0.35649000000000     0.83799000000000     0.16552000000000
C      C      0.64351000000000     0.33799000000000     0.33448000000000
C      C      0.85649000000000     0.66201000000000     0.83448000000000
C      C      0.35649000000000     0.66201000000000     0.66552000000000
C      C      0.64351000000000     0.16201000000000     0.83448000000000
C      C      0.14351000000000     0.33799000000000     0.16552000000000
H      H      0.23590000000000     0.05122000000000     0.19230000000000
H      H      0.76410000000000     0.94878000000000     0.80770000000000
H      H      0.26410000000000     0.94878000000000     0.69230000000000
H      H      0.73590000000000     0.44878000000000     0.80770000000000
H      H      0.76410000000000     0.55122000000000     0.30770000000000
H      H      0.26410000000000     0.55122000000000     0.19230000000000
H      H      0.73590000000000     0.05122000000000     0.30770000000000
H      H      0.23590000000000     0.44878000000000     0.69230000000000
H      H      0.16452000000000     0.19307000000000     0.82869000000000
H      H      0.83548000000000     0.80693000000000     0.17131000000000
H      H      0.33548000000000     0.80693000000000     0.32869000000000
H      H      0.66452000000000     0.30693000000000     0.17131000000000
H      H      0.83548000000000     0.69307000000000     0.67131000000000
H      H      0.33548000000000     0.69307000000000     0.82869000000000
H      H      0.66452000000000     0.19307000000000     0.67131000000000
H      H      0.16452000000000     0.30693000000000     0.32869000000000
O      O      0.22438000000000     0.12226000000000     0.52643000000000
O      O      0.77562000000000     0.87774000000000     0.47357000000000
O      O      0.27562000000000     0.87774000000000     0.02643000000000
O      O      0.72438000000000     0.37774000000000     0.47357000000000
O      O      0.77562000000000     0.62226000000000     0.97357000000000
O      O      0.27562000000000     0.62226000000000     0.52643000000000
O      O      0.72438000000000     0.12226000000000     0.97357000000000
O      O      0.22438000000000     0.37774000000000     0.02643000000000
H      H      0.94717000000000     0.12704000000000     0.05111000000000
H      H      0.05283000000000     0.87296000000000     0.94889000000000
H      H      0.55283000000000     0.87296000000000     0.55111000000000
H      H      0.44717000000000     0.37296000000000     0.94889000000000
H      H      0.05283000000000     0.62704000000000     0.44889000000000
H      H      0.55283000000000     0.62704000000000     0.05111000000000
H      H      0.44717000000000     0.12704000000000     0.44889000000000
H      H      0.94717000000000     0.37296000000000     0.55111000000000
H      H      0.90354000000000     0.21375000000000     0.44013000000000
H      H      0.09646000000000     0.78625000000000     0.55987000000000
H      H      0.59646000000000     0.78625000000000     0.94013000000000
H      H      0.40354000000000     0.28625000000000     0.55987000000000
H      H      0.09646000000000     0.71375000000000     0.05987000000000
H      H      0.59646000000000     0.71375000000000     0.44013000000000
H      H      0.40354000000000     0.21375000000000     0.05987000000000
H      H      0.90354000000000     0.28625000000000     0.94013000000000
