data_default
_cell_volume          1312.153382
_symmetry_space_group_name_H-M 'P 1'
_symmetry_Int_Tables_number 1
loop_
_symmetry_equiv_pos_site_id
_symmetry_equiv_pos_as_xyz
1 x,y,z
_cell_length_a         5.5503000000
_cell_length_b        16.4494000000
_cell_length_c        14.6501000000
_cell_angle_alpha        90.0000
_cell_angle_beta       101.1811
_cell_angle_gamma        90.0000
_cell_formula_units_Z 1
loop_
_atom_site_label
_atom_site_type_symbol
_atom_site_fract_x
_atom_site_fract_y
_atom_site_fract_z
CAR1   Ca     0.43005200000000     0.52888900000000     0.20911500000000
CAR1   Ca     0.06994800000000     0.02888900000000     0.29088500000000
CAR1   Ca     0.56994800000000     0.47111100000000     0.79088500000000
CAR1   Ca     0.93005200000000     0.97111100000000     0.70911500000000
CAR2   Ca     0.64997000000000     0.56729300000000     0.24698100000000
CAR2   Ca     0.85003000000000     0.06729300000000     0.25301900000000
CAR2   Ca     0.35003000000000     0.43270700000000     0.75301900000000
CAR2   Ca     0.14997000000000     0.93270700000000     0.74698100000000
CAR3   Ca     0.71644400000000     0.56920900000000     0.34378000000000
CAR3   Ca     0.78355600000000     0.06920900000000     0.15622000000000
CAR3   Ca     0.28355600000000     0.43079100000000     0.65622000000000
CAR3   Ca     0.21644400000000     0.93079100000000     0.84378000000000
CAR4   Ca     0.36856400000000     0.50122100000000     0.35757200000000
CAR4   Ca     0.13143600000000     0.00122100000000     0.14242800000000
CAR4   Ca     0.63143600000000     0.49877900000000     0.64242800000000
CAR4   Ca     0.86856400000000     0.99877900000000     0.85757200000000
CAR5   Ca     0.33485000000000     0.52205800000000     0.10625900000000
CAR5   Ca     0.16515000000000     0.02205800000000     0.39374100000000
CAR5   Ca     0.66515000000000     0.47794200000000     0.89374100000000
CAR5   Ca     0.83485000000000     0.97794200000000     0.60625900000000
NIT1   Ni     0.58036000000000     0.53684700000000     0.40021100000000
NIT1   Ni     0.91964000000000     0.03684700000000     0.09978900000000
NIT1   Ni     0.41964000000000     0.46315300000000     0.59978900000000
NIT1   Ni     0.08036000000000     0.96315300000000     0.90021100000000
NIT2   Ni     0.28863200000000     0.49603100000000     0.26447000000000
NIT2   Ni     0.21136800000000     0.99603100000000     0.23553000000000
NIT2   Ni     0.71136800000000     0.50396900000000     0.73553000000000
NIT2   Ni     0.78863200000000     0.00396900000000     0.76447000000000
NIT3   Ni     0.22052600000000     0.47065100000000     0.41265200000000
NIT3   Ni     0.27947400000000     0.97065100000000     0.08734800000000
NIT3   Ni     0.77947400000000     0.52934900000000     0.58734800000000
NIT3   Ni     0.72052600000000     0.02934900000000     0.91265200000000
HYD1   H      0.76487700000000     0.59397200000000     0.20336700000000
HYD1   H      0.73512300000000     0.09397200000000     0.29663300000000
HYD1   H      0.23512300000000     0.40602800000000     0.79663300000000
HYD1   H      0.26487700000000     0.90602800000000     0.70336700000000
HYD2   H      0.88652000000000     0.59776500000000     0.37774700000000
HYD2   H      0.61348000000000     0.09776500000000     0.12225300000000
HYD2   H      0.11348000000000     0.40223500000000     0.62225300000000
HYD2   H      0.38652000000000     0.90223500000000     0.87774700000000
HPD3   H      0.08655320000000     0.43119000000000     0.38382700000000
HPD3   H      0.41344680000000     0.93119000000000     0.11617300000000
HPD3   H      0.91344680000000     0.56881000000000     0.61617300000000
HPD3   H      0.58655320000000     0.06881000000000     0.88382700000000
HPD4   H      0.29723500000000     0.46472200000000     0.48038700000000
HPD4   H      0.20276500000000     0.96472200000000     0.01961300000000
HPD4   H      0.70276500000000     0.53527800000000     0.51961300000000
HPD4   H      0.79723500000000     0.03527800000000     0.98038700000000
HYD5   H      0.29566200000000     0.45880500000000     0.08700240000000
HYD5   H      0.20433800000000     0.95880500000000     0.41299760000000
HYD5   H      0.70433800000000     0.54119500000000     0.91299760000000
HYD5   H      0.79566200000000     0.04119500000000     0.58700240000000
HYD6   H      0.46719900000000     0.54574300000000     0.06715900000000
HYD6   H      0.03280100000000     0.04574300000000     0.43284100000000
HYD6   H      0.53280100000000     0.45425700000000     0.93284100000000
HYD6   H      0.96719900000000     0.95425700000000     0.56715900000000
HYD7   H      0.16362700000000     0.55580700000000     0.08671570000000
HYD7   H      0.33637300000000     0.05580700000000     0.41328430000000
HYD7   H      0.83637300000000     0.44419300000000     0.91328430000000
HYD7   H      0.66362700000000     0.94419300000000     0.58671570000000
CAR6   Ca     0.62608200000000     0.31042500000000     0.15769300000000
CAR6   Ca     0.87391800000000     0.81042500000000     0.34230700000000
CAR6   Ca     0.37391800000000     0.68957500000000     0.84230700000000
CAR6   Ca     0.12608200000000     0.18957500000000     0.65769300000000
CAR7   Ca     0.29571100000000     0.21269600000000     0.03705380000000
CAR7   Ca     0.20428900000000     0.71269600000000     0.46294620000000
CAR7   Ca     0.70428900000000     0.78730400000000     0.96294620000000
CAR7   Ca     0.79571100000000     0.28730400000000     0.53705380000000
CAR8   Ca     0.64267500000000     0.30337100000000     0.06366090000000
CAR8   Ca     0.85732500000000     0.80337100000000     0.43633910000000
CAR8   Ca     0.35732500000000     0.69662900000000     0.93633910000000
CAR8   Ca     0.14267500000000     0.19662900000000     0.56366090000000
CAR9   Ca     0.44235500000000     0.26811300000000     0.19287800000000
CAR9   Ca     0.05764500000000     0.76811300000000     0.30712200000000
CAR9   Ca     0.55764500000000     0.73188700000000     0.80712200000000
CAR9   Ca     0.94235500000000     0.23188700000000     0.69287800000000
CARa   Ca     0.27893900000000     0.22006900000000     0.13043300000000
CARa   Ca     0.22106100000000     0.72006900000000     0.36956700000000
CARa   Ca     0.72106100000000     0.77993100000000     0.86956700000000
CARa   Ca     0.77893900000000     0.27993100000000     0.63043300000000
CARb   Ca     0.47859300000000     0.25468500000000     0.00345721000000
CARb   Ca     0.02140700000000     0.75468500000000     0.49654279000000
CARb   Ca     0.52140700000000     0.74531500000000     0.99654279000000
CARb   Ca     0.97859300000000     0.24531500000000     0.50345721000000
CARc   Ca     0.80996800000000     0.36201500000000     0.21944200000000
CARc   Ca     0.69003200000000     0.86201500000000     0.28055800000000
CARc   Ca     0.19003200000000     0.63798500000000     0.78055800000000
CARc   Ca     0.30996800000000     0.13798500000000     0.71944200000000
CARd   Ca     0.41264600000000     0.27256200000000     0.29285200000000
CARd   Ca     0.08735400000000     0.77256200000000     0.20714800000000
CARd   Ca     0.58735400000000     0.72743800000000     0.70714800000000
CARd   Ca     0.91264600000000     0.22743800000000     0.79285200000000
HYD8   H      0.78463100000000     0.33669200000000     0.03866980000000
HYD8   H      0.71536900000000     0.83669200000000     0.46133020000000
HYD8   H      0.21536900000000     0.66330800000000     0.96133020000000
HYD8   H      0.28463100000000     0.16330800000000     0.53866980000000
HYD9   H      0.13544700000000     0.18763700000000     0.15603700000000
HYD9   H      0.36455300000000     0.68763700000000     0.34396300000000
HYD9   H      0.86455300000000     0.81236300000000     0.84396300000000
HYD9   H      0.63544700000000     0.31236300000000     0.65603700000000
HYDa   H      0.49373200000000     0.24950400000000     0.93111470000000
HYDa   H      0.00626800000000     0.74950400000000     0.56888530000000
HYDa   H      0.50626800000000     0.75049600000000     0.06888530000000
HYDa   H      0.99373200000000     0.25049600000000     0.43111470000000
HYDb   H      0.16632800000000     0.17473200000000     0.99099900000000
HYDb   H      0.33367200000000     0.67473200000000     0.50900100000000
HYDb   H      0.83367200000000     0.82526800000000     0.00900100000000
HYDb   H      0.66632800000000     0.32526800000000     0.49099900000000
HPDc   H      0.05366000000000     0.44470500000000     0.21767200000000
HPDc   H      0.44634000000000     0.94470500000000     0.28232800000000
HPDc   H      0.94634000000000     0.55529500000000     0.78232800000000
HPDc   H      0.55366000000000     0.05529500000000     0.71767200000000
HYDd   H      0.56641000000000     0.24395500000000     0.33903800000000
HYDd   H      0.93359000000000     0.74395500000000     0.16096200000000
HYDd   H      0.43359000000000     0.75604500000000     0.66096200000000
HYDd   H      0.06641000000000     0.25604500000000     0.83903800000000
HYDe   H      0.24356300000000     0.24191000000000     0.30036200000000
HYDe   H      0.25643700000000     0.74191000000000     0.19963800000000
HYDe   H      0.75643700000000     0.75809000000000     0.69963800000000
HYDe   H      0.74356300000000     0.25809000000000     0.80036200000000
HYDf   H      0.40556300000000     0.33516200000000     0.31621200000000
HYDf   H      0.09443700000000     0.83516200000000     0.18378800000000
HYDf   H      0.59443700000000     0.66483800000000     0.68378800000000
HYDf   H      0.90556300000000     0.16483800000000     0.81621200000000
OXY1   O      0.85217500000000     0.35684700000000     0.30514000000000
OXY1   O      0.64782500000000     0.85684700000000     0.19486000000000
OXY1   O      0.14782500000000     0.64315300000000     0.69486000000000
OXY1   O      0.35217500000000     0.14315300000000     0.80514000000000
OXY2   O      0.92468800000000     0.41420800000000     0.17259800000000
OXY2   O      0.57531200000000     0.91420800000000     0.32740200000000
OXY2   O      0.07531200000000     0.58579200000000     0.82740200000000
OXY2   O      0.42468800000000     0.08579200000000     0.67259800000000
