data_default
_cell_volume          1317.465019
_symmetry_space_group_name_H-M 'P 1'
_symmetry_Int_Tables_number 1
loop_
_symmetry_equiv_pos_site_id
_symmetry_equiv_pos_as_xyz
1 x,y,z
_cell_length_a        12.1676000000
_cell_length_b         8.2468000000
_cell_length_c        21.5177000000
_cell_angle_alpha        90.0000
_cell_angle_beta       142.3980
_cell_angle_gamma        90.0000
_cell_formula_units_Z 1
loop_
_atom_site_label
_atom_site_type_symbol
_atom_site_fract_x
_atom_site_fract_y
_atom_site_fract_z
CAR1   Ca     0.75591900000000     0.64294900000000     0.50313100000000
CAR1   Ca     0.24408100000000     0.14294900000000     0.99686900000000
CAR1   Ca     0.24408100000000     0.35705100000000     0.49686900000000
CAR1   Ca     0.75591900000000     0.85705100000000     0.00313100000000
CAR2   Ca     0.78502900000000     0.56461800000000     0.45984200000000
CAR2   Ca     0.21497100000000     0.06461800000000     0.04015800000000
CAR2   Ca     0.21497100000000     0.43538200000000     0.54015800000000
CAR2   Ca     0.78502900000000     0.93538200000000     0.95984200000000
CAR3   Ca     0.85614800000000     0.65734200000000     0.44337900000000
CAR3   Ca     0.14385200000000     0.15734200000000     0.05662100000000
CAR3   Ca     0.14385200000000     0.34265800000000     0.55662100000000
CAR3   Ca     0.85614800000000     0.84265800000000     0.94337900000000
CAR4   Ca     0.86208600000000     0.88133200000000     0.50767700000000
CAR4   Ca     0.13791400000000     0.38133200000000     0.99232300000000
CAR4   Ca     0.13791400000000     0.11866800000000     0.49232300000000
CAR4   Ca     0.86208600000000     0.61866800000000     0.00767700000000
CAR5   Ca     0.68107300000000     0.55875200000000     0.52580900000000
CAR5   Ca     0.31892700000000     0.05875200000000     0.97419100000000
CAR5   Ca     0.31892700000000     0.44124800000000     0.47419100000000
CAR5   Ca     0.68107300000000     0.94124800000000     0.02580900000000
NIT1   Ni     0.89571000000000     0.81450500000000     0.46647800000000
NIT1   Ni     0.10429000000000     0.31450500000000     0.03352200000000
NIT1   Ni     0.10429000000000     0.18549500000000     0.53352200000000
NIT1   Ni     0.89571000000000     0.68549500000000     0.96647800000000
NIT2   Ni     0.79393900000000     0.80164600000000     0.52680700000000
NIT2   Ni     0.20606100000000     0.30164600000000     0.97319300000000
NIT2   Ni     0.20606100000000     0.19835400000000     0.47319300000000
NIT2   Ni     0.79393900000000     0.69835400000000     0.02680700000000
NIT3   Ni     0.89366900000000     0.04218000000000     0.52830700000000
NIT3   Ni     0.10633100000000     0.54218000000000     0.97169300000000
NIT3   Ni     0.10633100000000     0.95782000000000     0.47169300000000
NIT3   Ni     0.89366900000000     0.45782000000000     0.02830700000000
HYD1   H      0.75493400000000     0.43746600000000     0.44040300000000
HYD1   H      0.24506600000000     0.93746600000000     0.05959700000000
HYD1   H      0.24506600000000     0.56253400000000     0.55959700000000
HYD1   H      0.75493400000000     0.06253400000000     0.94040300000000
HYD2   H      0.88312200000000     0.60340200000000     0.41041000000000
HYD2   H      0.11687800000000     0.10340200000000     0.08959000000000
HYD2   H      0.11687800000000     0.39659800000000     0.58959000000000
HYD2   H      0.88312200000000     0.89659800000000     0.91041000000000
HPD3   H      0.90091400000000     0.08833000000000     0.57524100000000
HPD3   H      0.09908600000000     0.58833000000000     0.92475900000000
HPD3   H      0.09908600000000     0.91167000000000     0.42475900000000
HPD3   H      0.90091400000000     0.41167000000000     0.07524100000000
HPD4   H      0.96621500000000     0.09421000000000     0.52676300000000
HPD4   H      0.03378500000000     0.59421000000000     0.97323700000000
HPD4   H      0.03378500000000     0.90579000000000     0.47323700000000
HPD4   H      0.96621500000000     0.40579000000000     0.02676300000000
HYD5   H      0.77324800000000     0.57133500000000     0.60618900000000
HYD5   H      0.22675200000000     0.07133500000000     0.89381100000000
HYD5   H      0.22675200000000     0.42866500000000     0.39381100000000
HYD5   H      0.77324800000000     0.92866500000000     0.10618900000000
HYD6   H      0.65920200000000     0.43051000000000     0.50689200000000
HYD6   H      0.34079800000000     0.93051000000000     0.99310800000000
HYD6   H      0.34079800000000     0.56949000000000     0.49310800000000
HYD6   H      0.65920200000000     0.06949000000000     0.00689200000000
HYD7   H      0.55358800000000     0.61377800000000     0.48228500000000
HYD7   H      0.44641200000000     0.11377800000000     0.01771500000000
HYD7   H      0.44641200000000     0.38622200000000     0.51771500000000
HYD7   H      0.55358800000000     0.88622200000000     0.98228500000000
CAR6   Ca     0.73903400000000     0.12299300000000     0.68626000000000
CAR6   Ca     0.26096600000000     0.62299300000000     0.81374000000000
CAR6   Ca     0.26096600000000     0.87700700000000     0.31374000000000
CAR6   Ca     0.73903400000000     0.37700700000000     0.18626000000000
CAR7   Ca     0.65707800000000     0.27192900000000     0.76279400000000
CAR7   Ca     0.34292200000000     0.77192900000000     0.73720600000000
CAR7   Ca     0.34292200000000     0.72807100000000     0.23720600000000
CAR7   Ca     0.65707800000000     0.22807100000000     0.26279400000000
CAR8   Ca     0.65535700000000     0.03038330000000     0.69584500000000
CAR8   Ca     0.34464300000000     0.53038330000000     0.80415500000000
CAR8   Ca     0.34464300000000     0.96961670000000     0.30415500000000
CAR8   Ca     0.65535700000000     0.46961670000000     0.19584500000000
CAR9   Ca     0.78151000000000     0.28650600000000     0.71553200000000
CAR9   Ca     0.21849000000000     0.78650600000000     0.78446800000000
CAR9   Ca     0.21849000000000     0.71349400000000     0.28446800000000
CAR9   Ca     0.78151000000000     0.21349400000000     0.21553200000000
CARa   Ca     0.74050200000000     0.36142200000000     0.75329600000000
CARa   Ca     0.25949800000000     0.86142200000000     0.74670400000000
CARa   Ca     0.25949800000000     0.63857800000000     0.24670400000000
CARa   Ca     0.74050200000000     0.13857800000000     0.25329600000000
CARb   Ca     0.61661600000000     0.10892900000000     0.73468400000000
CARb   Ca     0.38338400000000     0.60892900000000     0.76531600000000
CARb   Ca     0.38338400000000     0.89107100000000     0.26531600000000
CARb   Ca     0.61661600000000     0.39107100000000     0.23468400000000
CARc   Ca     0.78986100000000     0.05902120000000     0.64649500000000
CARc   Ca     0.21013900000000     0.55902120000000     0.85350500000000
CARc   Ca     0.21013900000000     0.94097880000000     0.35350500000000
CARc   Ca     0.78986100000000     0.44097880000000     0.14649500000000
CARd   Ca     0.60716100000000     0.85341900000000     0.66806800000000
CARd   Ca     0.39283900000000     0.35341900000000     0.83193200000000
CARd   Ca     0.39283900000000     0.14658100000000     0.33193200000000
CARd   Ca     0.60716100000000     0.64658100000000     0.16806800000000
HYD8   H      0.77329200000000     0.48794800000000     0.77510800000000
HYD8   H      0.22670800000000     0.98794800000000     0.72489200000000
HYD8   H      0.22670800000000     0.51205200000000     0.22489200000000
HYD8   H      0.77329200000000     0.01205200000000     0.27510800000000
HYD9   H      0.55340200000000     0.03977400000000     0.74323100000000
HYD9   H      0.44659800000000     0.53977400000000     0.75676900000000
HYD9   H      0.44659800000000     0.96022600000000     0.25676900000000
HYD9   H      0.55340200000000     0.46022600000000     0.24323100000000
HYDa   H      0.62444600000000     0.32799800000000     0.79225600000000
HYDa   H      0.37555400000000     0.82799800000000     0.70774400000000
HYDa   H      0.37555400000000     0.67200200000000     0.20774400000000
HYDa   H      0.62444600000000     0.17200200000000     0.29225600000000
HPDb   H      0.74724900000000     0.88815500000000     0.56848000000000
HPDb   H      0.25275100000000     0.38815500000000     0.93152000000000
HPDb   H      0.25275100000000     0.11184500000000     0.43152000000000
HPDb   H      0.74724900000000     0.61184500000000     0.06848000000000
HYDc   H      0.84766100000000     0.35247900000000     0.70820500000000
HYDc   H      0.15233900000000     0.85247900000000     0.79179500000000
HYDc   H      0.15233900000000     0.64752100000000     0.29179500000000
HYDc   H      0.84766100000000     0.14752100000000     0.20820500000000
HYDd   H      0.49811400000000     0.83558600000000     0.58611200000000
HYDd   H      0.50188600000000     0.33558600000000     0.91388800000000
HYDd   H      0.50188600000000     0.16441400000000     0.41388800000000
HYDd   H      0.49811400000000     0.66441400000000     0.08611200000000
HYDe   H      0.56501900000000     0.80651500000000     0.69422100000000
HYDe   H      0.43498100000000     0.30651500000000     0.80577900000000
HYDe   H      0.43498100000000     0.19348500000000     0.30577900000000
HYDe   H      0.56501900000000     0.69348500000000     0.19422100000000
HYDf   H      0.72072000000000     0.78184600000000     0.70254400000000
HYDf   H      0.27928000000000     0.28184600000000     0.79745600000000
HYDf   H      0.27928000000000     0.21815400000000     0.29745600000000
HYDf   H      0.72072000000000     0.71815400000000     0.20254400000000
OXY1   O      0.90141600000000     0.12827400000000     0.66324300000000
OXY1   O      0.09858400000000     0.62827400000000     0.83675700000000
OXY1   O      0.09858400000000     0.87172600000000     0.33675700000000
OXY1   O      0.90141600000000     0.37172600000000     0.16324300000000
OXY2   O      0.70262600000000     0.92486530000000     0.59058900000000
OXY2   O      0.29737400000000     0.42486530000000     0.90941100000000
OXY2   O      0.29737400000000     0.07513470000000     0.40941100000000
OXY2   O      0.70262600000000     0.57513470000000     0.09058900000000
