data_default
_cell_volume           656.443211
_symmetry_space_group_name_H-M 'P 1'
_symmetry_Int_Tables_number 1
loop_
_symmetry_equiv_pos_site_id
_symmetry_equiv_pos_as_xyz
1 x,y,z
_cell_length_a         9.8423700000
_cell_length_b        12.9296400000
_cell_length_c        10.9101400000
_cell_angle_alpha       140.3456
_cell_angle_beta       108.2842
_cell_angle_gamma        97.8988
_cell_formula_units_Z 1
loop_
_atom_site_label
_atom_site_type_symbol
_atom_site_fract_x
_atom_site_fract_y
_atom_site_fract_z
N1     N      0.09686000000000     0.07378000000000     0.28849000000000
N1     N      0.90314000000000     0.92622000000000     0.71151000000000
C2     C      0.05304000000000     0.05010000000000     0.37444000000000
C2     C      0.94696000000000     0.94990000000000     0.62556000000000
N3     N      0.08229000000000     0.93371000000000     0.34352000000000
N3     N      0.91771000000000     0.06629000000000     0.65648000000000
N4     N      0.98357000000000     0.12901000000000     0.48741000000000
N4     N      0.01643000000000     0.87099000000000     0.51259000000000
C5     C      0.95473000000000     0.24356000000000     0.51794000000000
C5     C      0.04527000000000     0.75644000000000     0.48206000000000
C6     C      0.99523000000000     0.27834000000000     0.43592000000000
C6     C      0.00477000000000     0.72166000000000     0.56408000000000
H7     H      0.97225000000000     0.37075000000000     0.46002000000000
H7     H      0.02775000000000     0.62925000000000     0.53998000000000
C8     C      0.06672000000000     0.18857000000000     0.32138000000000
C8     C      0.93328000000000     0.81143000000000     0.67862000000000
H9     H      0.10146000000000     0.20904000000000     0.25289000000000
H9     H      0.89854000000000     0.79096000000000     0.74711000000000
C10    C      0.87709000000000     0.33125000000000     0.64427000000000
C10    C      0.12291000000000     0.66875000000000     0.35573000000000
H11    H      0.74490000000000     0.20504000000000     0.53219000000000
H11    H      0.25510000000000     0.79496000000000     0.46781000000000
H12    H      0.96919000000000     0.43050000000000     0.83573000000000
H12    H      0.03081000000000     0.56950000000000     0.16427000000000
H13    H      0.85825000000000     0.42208000000000     0.66129000000000
H13    H      0.14175000000000     0.57792000000000     0.33871000000000
H14    H      0.13401000000000     0.87159000000000     0.26010000000000
H14    H      0.86599000000000     0.12841000000000     0.73990000000000
H15    H      0.05173000000000     0.91168000000000     0.40460000000000
H15    H      0.94827000000000     0.08832000000000     0.59540000000000
C1     C      0.70166000000000     0.14814000000000     0.90144000000000
C1     C      0.29834000000000     0.85186000000000     0.09856000000000
C2     C      0.60106000000000     0.21080000000000     0.99222000000000
C2     C      0.39894000000000     0.78920000000000     0.00778000000000
C3     C      0.59096000000000     0.20416000000000     0.11201000000000
C3     C      0.40904000000000     0.79584000000000     0.88799000000000
C4     C      0.50217000000000     0.26713000000000     0.20586000000000
C4     C      0.49783000000000     0.73287000000000     0.79414000000000
C5     C      0.42157000000000     0.33545000000000     0.17811000000000
C5     C      0.57843000000000     0.66455000000000     0.82189000000000
C6     C      0.43072000000000     0.34010000000000     0.05690000000000
C6     C      0.56928000000000     0.65990000000000     0.94310000000000
C7     C      0.52109000000000     0.28038000000000     0.96356000000000
C7     C      0.47891000000000     0.71962000000000     0.03644000000000
C8     C      0.52585000000000     0.28930000000000     0.83479000000000
C8     C      0.47415000000000     0.71070000000000     0.16521000000000
O9     O      0.77080000000000     0.20371000000000     0.87062000000000
O9     O      0.22920000000000     0.79629000000000     0.12938000000000
O10    O      0.70981000000000     0.01803000000000     0.85549000000000
O10    O      0.29019000000000     0.98197000000000     0.14451000000000
H11    H      0.65325000000000     0.14970000000000     0.13089000000000
H11    H      0.34675000000000     0.85030000000000     0.86911000000000
H12    H      0.49588000000000     0.26258000000000     0.29942000000000
H12    H      0.50412000000000     0.73742000000000     0.70058000000000
H13    H      0.35109000000000     0.38386000000000     0.24897000000000
H13    H      0.64891000000000     0.61614000000000     0.75103000000000
H14    H      0.36661000000000     0.39196000000000     0.03418000000000
H14    H      0.63339000000000     0.60804000000000     0.96582000000000
H15    H      0.48254000000000     0.14354000000000     0.64928000000000
H15    H      0.51746000000000     0.85646000000000     0.35072000000000
H16    H      0.66446000000000     0.41112000000000     0.95156000000000
H16    H      0.33554000000000     0.58888000000000     0.04844000000000
H17    H      0.43464000000000     0.32048000000000     0.80455000000000
H17    H      0.56536000000000     0.67952000000000     0.19545000000000
H18    H      0.78314000000000     0.99360000000000     0.80767000000000
H18    H      0.21686000000000     0.00640000000000     0.19233000000000
