data_default
_cell_volume          1231.737563
_symmetry_space_group_name_H-M 'P 1'
_symmetry_Int_Tables_number 1
loop_
_symmetry_equiv_pos_site_id
_symmetry_equiv_pos_as_xyz
1 x,y,z
_cell_length_a         5.3022950000
_cell_length_b        16.2514120000
_cell_length_c        14.6601130000
_cell_angle_alpha        90.0000
_cell_angle_beta        77.1737
_cell_angle_gamma        90.0000
_cell_formula_units_Z 1
loop_
_atom_site_label
_atom_site_type_symbol
_atom_site_fract_x
_atom_site_fract_y
_atom_site_fract_z
C1     C      0.74993500000000     0.24687200000000     0.17248400000000
C1     C      0.25006500000000     0.74687200000000     0.32751600000000
C1     C      0.25006500000000     0.75312800000000     0.82751600000000
C1     C      0.74993500000000     0.25312800000000     0.67248400000000
C2     C      0.97930400000000     0.20111700000000     0.13896100000000
C2     C      0.02069600000000     0.70111700000000     0.36103900000000
C2     C      0.02069600000000     0.79888300000000     0.86103900000000
C2     C      0.97930400000000     0.29888300000000     0.63896100000000
C3     C      0.09759900000000     0.20219200000000     0.04317500000000
C3     C      0.90240100000000     0.70219200000000     0.45682500000000
C3     C      0.90240100000000     0.79780800000000     0.95682500000000
C3     C      0.09759900000000     0.29780800000000     0.54317500000000
C4     C      0.99402700000000     0.24751700000000     0.97984200000000
C4     C      0.00597300000000     0.74751700000000     0.52015800000000
C4     C      0.00597300000000     0.75248300000000     0.02015800000000
C4     C      0.99402700000000     0.25248300000000     0.47984200000000
C5     C      0.76837500000000     0.29272600000000     0.01220000000000
C5     C      0.23162500000000     0.79272600000000     0.48780000000000
C5     C      0.23162500000000     0.70727400000000     0.98780000000000
C5     C      0.76837500000000     0.20727400000000     0.51220000000000
C6     C      0.64986300000000     0.29199300000000     0.10706800000000
C6     C      0.35013700000000     0.79199300000000     0.39293200000000
C6     C      0.35013700000000     0.70800700000000     0.89293200000000
C6     C      0.64986300000000     0.20800700000000     0.60706800000000
C7     C      0.10115800000000     0.15106500000000     0.20306000000000
C7     C      0.89884200000000     0.65106500000000     0.29694000000000
C7     C      0.89884200000000     0.84893500000000     0.79694000000000
C7     C      0.10115800000000     0.34893500000000     0.70306000000000
O1     O      0.31489200000000     0.11212300000000     0.16007100000000
O1     O      0.68510800000000     0.61212300000000     0.33992900000000
O1     O      0.68510800000000     0.88787700000000     0.83992900000000
O1     O      0.31489200000000     0.38787700000000     0.66007100000000
O2     O      0.01245900000000     0.14615000000000     0.28795500000000
O2     O      0.98754100000000     0.64615000000000     0.21204500000000
O2     O      0.98754100000000     0.85385000000000     0.71204500000000
O2     O      0.01245900000000     0.35385000000000     0.78795500000000
H1     H      0.39135700000000     0.07887200000000     0.20615600000000
H1     H      0.60864300000000     0.57887200000000     0.29384400000000
H1     H      0.60864300000000     0.92112800000000     0.79384400000000
H1     H      0.39135700000000     0.42112800000000     0.70615600000000
H4     H      0.08834900000000     0.24754700000000     0.90610000000000
H4     H      0.91165100000000     0.74754700000000     0.59390000000000
H4     H      0.91165100000000     0.75245300000000     0.09390000000000
H4     H      0.08834900000000     0.25245300000000     0.40610000000000
H5     H      0.68439200000000     0.32854300000000     0.96382200000000
H5     H      0.31560800000000     0.82854300000000     0.53617800000000
H5     H      0.31560800000000     0.67145700000000     0.03617800000000
H5     H      0.68439200000000     0.17145700000000     0.46382200000000
H6     H      0.47407700000000     0.32740200000000     0.13166800000000
H6     H      0.52592300000000     0.82740200000000     0.36833200000000
H6     H      0.52592300000000     0.67259800000000     0.86833200000000
H6     H      0.47407700000000     0.17259800000000     0.63166800000000
H8     H      0.27272500000000     0.16669100000000     0.01938500000000
H8     H      0.72727500000000     0.66669100000000     0.48061500000000
H8     H      0.72727500000000     0.83330900000000     0.98061500000000
H8     H      0.27272500000000     0.33330900000000     0.51938500000000
C12    C      0.60812100000000     0.24980600000000     0.27388100000000
C12    C      0.39187900000000     0.74980600000000     0.22611900000000
C12    C      0.39187900000000     0.75019400000000     0.72611900000000
C12    C      0.60812100000000     0.25019400000000     0.77388100000000
H9     H      0.54694200000000     0.18853300000000     0.30068800000000
H9     H      0.45305800000000     0.68853300000000     0.19931200000000
H9     H      0.45305800000000     0.81146700000000     0.69931200000000
H9     H      0.54694200000000     0.31146700000000     0.80068800000000
H10    H      0.73144100000000     0.27333700000000     0.31863000000000
H10    H      0.26855900000000     0.77333700000000     0.18137000000000
H10    H      0.26855900000000     0.72666300000000     0.68137000000000
H10    H      0.73144100000000     0.22666300000000     0.81863000000000
H11    H      0.43746100000000     0.28922100000000     0.28173100000000
H11    H      0.56253900000000     0.78922100000000     0.21826900000000
H11    H      0.56253900000000     0.71077900000000     0.71826900000000
H11    H      0.43746100000000     0.21077900000000     0.78173100000000
N1     N      0.52756300000000     0.01186700000000     0.25794900000000
N1     N      0.47243700000000     0.51186700000000     0.24205100000000
N1     N      0.47243700000000     0.98813300000000     0.74205100000000
N1     N      0.52756300000000     0.48813300000000     0.75794900000000
C8     C      0.52054300000000     0.01027000000000     0.35103400000000
C8     C      0.47945700000000     0.51027000000000     0.14896600000000
C8     C      0.47945700000000     0.98973000000000     0.64896600000000
C8     C      0.52054300000000     0.48973000000000     0.85103400000000
N2     N      0.70081000000000     0.97448700000000     0.39062300000000
N2     N      0.29919000000000     0.47448700000000     0.10937700000000
N2     N      0.29919000000000     0.02551300000000     0.60937700000000
N2     N      0.70081000000000     0.52551300000000     0.89062300000000
C9     C      0.89696400000000     0.93876900000000     0.33183700000000
C9     C      0.10303600000000     0.43876900000000     0.16816300000000
C9     C      0.10303600000000     0.06123100000000     0.66816300000000
C9     C      0.89696400000000     0.56123100000000     0.83183700000000
C10    C      0.92273600000000     0.93689500000000     0.23494500000000
C10    C      0.07726400000000     0.43689500000000     0.26505500000000
C10    C      0.07726400000000     0.06310500000000     0.76505500000000
C10    C      0.92273600000000     0.56310500000000     0.73494500000000
C11    C      0.72840900000000     0.97522300000000     0.20016500000000
C11    C      0.27159100000000     0.47522300000000     0.29983500000000
C11    C      0.27159100000000     0.02477700000000     0.79983500000000
C11    C      0.72840900000000     0.52477700000000     0.70016500000000
N3     N      0.31913500000000     0.04703600000000     0.40849400000000
N3     N      0.68086500000000     0.54703600000000     0.09150600000000
N3     N      0.68086500000000     0.95296400000000     0.59150600000000
N3     N      0.31913500000000     0.45296400000000     0.90849400000000
H2     H      0.31371900000000     0.04589200000000     0.47751600000000
H2     H      0.68628100000000     0.54589200000000     0.02248400000000
H2     H      0.68628100000000     0.95410800000000     0.52248400000000
H2     H      0.31371900000000     0.45410800000000     0.97751600000000
H3     H      0.17754700000000     0.07498100000000     0.38249000000000
H3     H      0.82245300000000     0.57498100000000     0.11751000000000
H3     H      0.82245300000000     0.92501900000000     0.61751000000000
H3     H      0.17754700000000     0.42501900000000     0.88249000000000
H7     H      0.08550200000000     0.90716500000000     0.18906400000000
H7     H      0.91449800000000     0.40716500000000     0.31093600000000
H7     H      0.91449800000000     0.09283500000000     0.81093600000000
H7     H      0.08550200000000     0.59283500000000     0.68906400000000
H12    H      0.04221000000000     0.90994400000000     0.36351900000000
H12    H      0.95779000000000     0.40994400000000     0.13648100000000
H12    H      0.95779000000000     0.09005600000000     0.63648100000000
H12    H      0.04221000000000     0.59005600000000     0.86351900000000
C13    C      0.73094600000000     0.97798800000000     0.09735500000000
C13    C      0.26905400000000     0.47798800000000     0.40264500000000
C13    C      0.26905400000000     0.02201200000000     0.90264500000000
C13    C      0.73094600000000     0.52201200000000     0.59735500000000
H13    H      0.55672400000000     0.94881500000000     0.08386000000000
H13    H      0.44327600000000     0.44881500000000     0.41614000000000
H13    H      0.44327600000000     0.05118500000000     0.91614000000000
H13    H      0.55672400000000     0.55118500000000     0.58386000000000
H14    H      0.73037600000000     0.04181600000000     0.07353200000000
H14    H      0.26962400000000     0.54181600000000     0.42646800000000
H14    H      0.26962400000000     0.95818400000000     0.92646800000000
H14    H      0.73037600000000     0.45818400000000     0.57353200000000
H15    H      0.90062800000000     0.94680100000000     0.05597600000000
H15    H      0.09937200000000     0.44680100000000     0.44402400000000
H15    H      0.09937200000000     0.05319900000000     0.94402400000000
H15    H      0.90062800000000     0.55319900000000     0.55597600000000
