data_default
_cell_volume           635.129703
_symmetry_space_group_name_H-M 'P 1'
_symmetry_Int_Tables_number 1
loop_
_symmetry_equiv_pos_site_id
_symmetry_equiv_pos_as_xyz
1 x,y,z
_cell_length_a         4.0651000000
_cell_length_b        11.6095000000
_cell_length_c        13.8860000000
_cell_angle_alpha       100.0200
_cell_angle_beta        96.6580
_cell_angle_gamma        96.4150
_cell_formula_units_Z 1
loop_
_atom_site_label
_atom_site_type_symbol
_atom_site_fract_x
_atom_site_fract_y
_atom_site_fract_z
O1     O      0.94644980000000     0.97435410000000     0.32848800000000
O1     O      0.05355020000000     0.02564590000000     0.67151200000000
H1     H      0.04277610000000     0.00103311000000     0.28183900000000
H1     H      0.95722390000000     0.99896689000000     0.71816100000000
O2     O      0.97009170000000     0.80857600000000     0.21881400000000
O2     O      0.02990830000000     0.19142400000000     0.78118600000000
C1     C      0.72357800000000     0.79199700000000     0.36698900000000
C1     C      0.27642200000000     0.20800300000000     0.63301100000000
C2     C      0.64552900000000     0.85854800000000     0.45409800000000
C2     C      0.35447100000000     0.14145200000000     0.54590200000000
H2     H      0.70354200000000     0.94521940000000     0.46677500000000
H2     H      0.29645800000000     0.05478060000000     0.53322500000000
C3     C      0.48974000000000     0.80443800000000     0.52179200000000
C3     C      0.51026000000000     0.19556200000000     0.47820800000000
H3     H      0.43673600000000     0.85261800000000     0.58269800000000
H3     H      0.56326400000000     0.14738200000000     0.41730200000000
C4     C      0.41004100000000     0.68180600000000     0.50275700000000
C4     C      0.58995900000000     0.31819400000000     0.49724300000000
H4     H      0.29916400000000     0.64181600000000     0.55016600000000
H4     H      0.70083600000000     0.35818400000000     0.44983400000000
C5     C      0.48695000000000     0.61525400000000     0.41665700000000
C5     C      0.51305000000000     0.38474600000000     0.58334300000000
H5     H      0.42941700000000     0.52825300000000     0.40364000000000
H5     H      0.57058300000000     0.47174700000000     0.59636000000000
C6     C      0.64360900000000     0.66729700000000     0.34698400000000
C6     C      0.35639100000000     0.33270300000000     0.65301600000000
C7     C      0.88855800000000     0.85422100000000     0.29698500000000
C7     C      0.11144200000000     0.14577900000000     0.70301500000000
C8     C      0.71702100000000     0.58871100000000     0.25608500000000
C8     C      0.28297900000000     0.41128900000000     0.74391500000000
H6     H      0.60062500000000     0.60796200000000     0.19477900000000
H6     H      0.39937500000000     0.39203800000000     0.80522100000000
H7     H      0.64378000000000     0.50441800000000     0.25819500000000
H7     H      0.35622000000000     0.49558200000000     0.74180500000000
H8     H      0.95988440000000     0.59901100000000     0.24975600000000
H8     H      0.04011560000000     0.40098900000000     0.75024400000000
N1     N      0.84112000000000     0.90929400000000     0.78791000000000
N1     N      0.15888000000000     0.09070600000000     0.21209000000000
N2     N      0.60757900000000     0.86344200000000     0.93130620000000
N2     N      0.39242100000000     0.13655800000000     0.06869380000000
N3     N      0.62312100000000     0.04906900000000     0.89257500000000
N3     N      0.37687900000000     0.95093100000000     0.10742500000000
H9     H      0.52329000000000     0.07066830000000     0.94712250000000
H9     H      0.47671000000000     0.92933170000000     0.05287750000000
H10    H      0.67635300000000     0.10116800000000     0.85297500000000
H10    H      0.32364700000000     0.89883200000000     0.14702500000000
C9     C      0.69331400000000     0.93649300000000     0.86962100000000
C9     C      0.30668600000000     0.06350700000000     0.13037900000000
C10    C      0.67643100000000     0.75250400000000     0.90915140000000
C10    C      0.32356900000000     0.24749600000000     0.09084860000000
C11    C      0.83033800000000     0.71488800000000     0.82590100000000
C11    C      0.16966200000000     0.28511200000000     0.17409900000000
H11    H      0.88225800000000     0.63318300000000     0.80910500000000
H11    H      0.11774200000000     0.36681700000000     0.19089500000000
C12    C      0.90672140000000     0.79797400000000     0.76782500000000
C12    C      0.09327860000000     0.20202600000000     0.23217500000000
H12    H      0.01544520000000     0.77678200000000     0.70791900000000
H12    H      0.98455480000000     0.22321800000000     0.29208100000000
C13    C      0.58181300000000     0.67045400000000     0.97695550000000
C13    C      0.41818700000000     0.32954600000000     0.02304450000000
H13    H      0.47440200000000     0.71248400000000     0.03107270000000
H13    H      0.52559800000000     0.28751600000000     0.96892730000000
H14    H      0.78319600000000     0.64014100000000     0.00636853000000
H14    H      0.21680400000000     0.35985900000000     0.99363147000000
H15    H      0.42345400000000     0.60053900000000     0.94010410000000
H15    H      0.57654600000000     0.39946100000000     0.05989590000000
