data_default
_cell_volume          1264.119635
_symmetry_space_group_name_H-M 'P 1'
_symmetry_Int_Tables_number 1
loop_
_symmetry_equiv_pos_site_id
_symmetry_equiv_pos_as_xyz
1 x,y,z
_cell_length_a        11.9477000000
_cell_length_b         6.4576000000
_cell_length_c        17.4762000000
_cell_angle_alpha        90.0000
_cell_angle_beta       110.3590
_cell_angle_gamma        90.0000
_cell_formula_units_Z 1
loop_
_atom_site_label
_atom_site_type_symbol
_atom_site_fract_x
_atom_site_fract_y
_atom_site_fract_z
O1     O      0.81104000000000     0.88730000000000     0.14125000000000
O1     O      0.18896000000000     0.38730000000000     0.35875000000000
O1     O      0.18896000000000     0.11270000000000     0.85875000000000
O1     O      0.81104000000000     0.61270000000000     0.64125000000000
H1     H      0.77005000000000     0.00307994000000     0.13259000000000
H1     H      0.22995000000000     0.50307994000000     0.36741000000000
H1     H      0.22995000000000     0.99692006000000     0.86741000000000
H1     H      0.77005000000000     0.49692006000000     0.63259000000000
O2     O      0.71977000000000     0.89076000000000     0.00443999000000
O2     O      0.28023000000000     0.39076000000000     0.49556001000000
O2     O      0.28023000000000     0.10924000000000     0.99556001000000
O2     O      0.71977000000000     0.60924000000000     0.50443999000000
C1     C      0.85236000000000     0.60719000000000     0.06661000000000
C1     C      0.14764000000000     0.10719000000000     0.43339000000000
C1     C      0.14764000000000     0.39281000000000     0.93339000000000
C1     C      0.85236000000000     0.89281000000000     0.56661000000000
C2     C      0.94019000000000     0.54375000000000     0.14002000000000
C2     C      0.05981000000000     0.04375000000000     0.35998000000000
C2     C      0.05981000000000     0.45625000000000     0.85998000000000
C2     C      0.94019000000000     0.95625000000000     0.64002000000000
H2     H      0.95673010000000     0.63201000000000     0.18885000000000
H2     H      0.04326990000000     0.13201000000000     0.31115000000000
H2     H      0.04326990000000     0.36799000000000     0.81115000000000
H2     H      0.95673010000000     0.86799000000000     0.68885000000000
C3     C      0.00382000000000     0.36106000000000     0.14448000000000
C3     C      0.99618000000000     0.86106000000000     0.35552000000000
C3     C      0.99618000000000     0.63894000000000     0.85552000000000
C3     C      0.00382000000000     0.13894000000000     0.64448000000000
H3     H      0.06582000000000     0.31929000000000     0.19649000000000
H3     H      0.93418000000000     0.81929000000000     0.30351000000000
H3     H      0.93418000000000     0.68071000000000     0.80351000000000
H3     H      0.06582000000000     0.18071000000000     0.69649000000000
C4     C      0.97886000000000     0.23774000000000     0.07495000000000
C4     C      0.02114000000000     0.73774000000000     0.42505000000000
C4     C      0.02114000000000     0.76226000000000     0.92505000000000
C4     C      0.97886000000000     0.26226000000000     0.57495000000000
H4     H      0.02300000000000     0.10682000000000     0.07710000000000
H4     H      0.97700000000000     0.60682000000000     0.42290000000000
H4     H      0.97700000000000     0.89318000000000     0.92290000000000
H4     H      0.02300000000000     0.39318000000000     0.57710000000000
C5     C      0.89135000000000     0.29896000000000     0.00209003000000
C5     C      0.10865000000000     0.79896000000000     0.49790997000000
C5     C      0.10865000000000     0.70104000000000     0.99790997000000
C5     C      0.89135000000000     0.20104000000000     0.50209003000000
H5     H      0.87393000000000     0.21031000000000     0.95305000000000
H5     H      0.12607000000000     0.71031000000000     0.54695000000000
H5     H      0.12607000000000     0.78969000000000     0.04695000000000
H5     H      0.87393000000000     0.28969000000000     0.45305000000000
C6     C      0.82651000000000     0.48313000000000     0.99555000000000
C6     C      0.17349000000000     0.98313000000000     0.50445000000000
C6     C      0.17349000000000     0.51687000000000     0.00445000000000
C6     C      0.82651000000000     0.01687000000000     0.49555000000000
C7     C      0.78713000000000     0.80378000000000     0.06505000000000
C7     C      0.21287000000000     0.30378000000000     0.43495000000000
C7     C      0.21287000000000     0.19622000000000     0.93495000000000
C7     C      0.78713000000000     0.69622000000000     0.56505000000000
C8     C      0.73374000000000     0.53753000000000     0.91458000000000
C8     C      0.26626000000000     0.03753000000000     0.58542000000000
C8     C      0.26626000000000     0.46247000000000     0.08542000000000
C8     C      0.73374000000000     0.96247000000000     0.41458000000000
H6     H      0.65289000000000     0.55085000000000     0.91887000000000
H6     H      0.34711000000000     0.05085000000000     0.58113000000000
H6     H      0.34711000000000     0.44915000000000     0.08113000000000
H6     H      0.65289000000000     0.94915000000000     0.41887000000000
H7     H      0.73044000000000     0.42832000000000     0.87354000000000
H7     H      0.26956000000000     0.92832000000000     0.62646000000000
H7     H      0.26956000000000     0.57168000000000     0.12646000000000
H7     H      0.73044000000000     0.07168000000000     0.37354000000000
H8     H      0.75067000000000     0.67378000000000     0.89417000000000
H8     H      0.24933000000000     0.17378000000000     0.60583000000000
H8     H      0.24933000000000     0.32622000000000     0.10583000000000
H8     H      0.75067000000000     0.82622000000000     0.39417000000000
N1     N      0.71129000000000     0.21532000000000     0.15055000000000
N1     N      0.28871000000000     0.71532000000000     0.34945000000000
N1     N      0.28871000000000     0.78468000000000     0.84945000000000
N1     N      0.71129000000000     0.28468000000000     0.65055000000000
N2     N      0.57365000000000     0.50317000000000     0.11183000000000
N2     N      0.42635000000000     0.00317000000000     0.38817000000000
N2     N      0.42635000000000     0.49683000000000     0.88817000000000
N2     N      0.57365000000000     0.99683000000000     0.61183000000000
N3     N      0.57914000000000     0.25383000000000     0.01874000000000
N3     N      0.42086000000000     0.75383000000000     0.48126000000000
N3     N      0.42086000000000     0.74617000000000     0.98126000000000
N3     N      0.57914000000000     0.24617000000000     0.51874000000000
H9     H      0.51954000000000     0.32462000000000     0.98066000000000
H9     H      0.48046000000000     0.82462000000000     0.51934000000000
H9     H      0.48046000000000     0.67538000000000     0.01934000000000
H9     H      0.51954000000000     0.17538000000000     0.48066000000000
H10    H      0.60979000000000     0.13519000000000     0.00583998000000
H10    H      0.39021000000000     0.63519000000000     0.49416002000000
H10    H      0.39021000000000     0.86481000000000     0.99416002000000
H10    H      0.60979000000000     0.36481000000000     0.50583998000000
C9     C      0.62307000000000     0.32650000000000     0.09661000000000
C9     C      0.37693000000000     0.82650000000000     0.40339000000000
C9     C      0.37693000000000     0.67350000000000     0.90339000000000
C9     C      0.62307000000000     0.17350000000000     0.59661000000000
C10    C      0.61664000000000     0.57566000000000     0.18837000000000
C10    C      0.38336000000000     0.07566000000000     0.31163000000000
C10    C      0.38336000000000     0.42434000000000     0.81163000000000
C10    C      0.61664000000000     0.92434000000000     0.68837000000000
C11    C      0.70855000000000     0.47225000000000     0.24929000000000
C11    C      0.29145000000000     0.97225000000000     0.25071000000000
C11    C      0.29145000000000     0.52775000000000     0.75071000000000
C11    C      0.70855000000000     0.02775000000000     0.74929000000000
H11    H      0.74083000000000     0.52490000000000     0.30591000000000
H11    H      0.25917000000000     0.02490000000000     0.19409000000000
H11    H      0.25917000000000     0.47510000000000     0.69409000000000
H11    H      0.74083000000000     0.97510000000000     0.80591000000000
C12    C      0.75233000000000     0.29171000000000     0.22638000000000
C12    C      0.24767000000000     0.79171000000000     0.27362000000000
C12    C      0.24767000000000     0.70829000000000     0.77362000000000
C12    C      0.75233000000000     0.20829000000000     0.72638000000000
H12    H      0.81724000000000     0.21144000000000     0.26668000000000
H12    H      0.18276000000000     0.71144000000000     0.23332000000000
H12    H      0.18276000000000     0.78856000000000     0.73332000000000
H12    H      0.81724000000000     0.28856000000000     0.76668000000000
C13    C      0.56232000000000     0.77148000000000     0.20610000000000
C13    C      0.43768000000000     0.27148000000000     0.29390000000000
C13    C      0.43768000000000     0.22852000000000     0.79390000000000
C13    C      0.56232000000000     0.72852000000000     0.70610000000000
H13    H      0.49845000000000     0.82095000000000     0.15583000000000
H13    H      0.50155000000000     0.32095000000000     0.34417000000000
H13    H      0.50155000000000     0.17905000000000     0.84417000000000
H13    H      0.49845000000000     0.67905000000000     0.65583000000000
H14    H      0.62411000000000     0.88208000000000     0.22606000000000
H14    H      0.37589000000000     0.38208000000000     0.27394000000000
H14    H      0.37589000000000     0.11792000000000     0.77394000000000
H14    H      0.62411000000000     0.61792000000000     0.72606000000000
H15    H      0.52739000000000     0.74795000000000     0.24965000000000
H15    H      0.47261000000000     0.24795000000000     0.25035000000000
H15    H      0.47261000000000     0.25205000000000     0.75035000000000
H15    H      0.52739000000000     0.75205000000000     0.74965000000000
