data_default
_cell_volume           592.318169
_symmetry_space_group_name_H-M 'P 1'
_symmetry_Int_Tables_number 1
loop_
_symmetry_equiv_pos_site_id
_symmetry_equiv_pos_as_xyz
1 x,y,z
_cell_length_a        27.6643000000
_cell_length_b        14.3553000000
_cell_length_c        10.8753000000
_cell_angle_alpha        36.9853
_cell_angle_beta        29.7426
_cell_angle_gamma        16.5352
_cell_formula_units_Z 1
loop_
_atom_site_label
_atom_site_type_symbol
_atom_site_fract_x
_atom_site_fract_y
_atom_site_fract_z
C1     C      0.15805000000000     0.49490000000000     0.19292000000000
C1     C      0.84195000000000     0.50510000000000     0.80708000000000
N1     N      0.95133000000000     0.76669000000000     0.36588000000000
N1     N      0.04867000000000     0.23331000000000     0.63412000000000
C2     C      0.84933000000000     0.00927000000000     0.40793000000000
C2     C      0.15067000000000     0.99073000000000     0.59207000000000
C3     C      0.95829000000000     0.96570000000000     0.27775000000000
C3     C      0.04171000000000     0.03430000000000     0.72225000000000
C4     C      0.17360000000000     0.66713000000000     0.10586000000000
C4     C      0.82640000000000     0.33287000000000     0.89414000000000
N2     N      0.27966000000000     0.42242000000000     0.05776000000000
N2     N      0.72034000000000     0.57758000000000     0.94224000000000
H1     H      0.67772000000000     0.23974000000000     0.55008000000000
H1     H      0.32228000000000     0.76026000000000     0.44992000000000
H2     H      0.87635000000000     0.16101000000000     0.31307000000000
H2     H      0.12365000000000     0.83899000000000     0.68693000000000
C5     C      0.29590000000000     0.61236000000000     0.96369000000000
C5     C      0.70410000000000     0.38764000000000     0.03631000000000
H3     H      0.41847000000000     0.38149000000000     0.98989000000000
H3     H      0.58153000000000     0.61851000000000     0.01011000000000
H4     H      0.36985000000000     0.58829000000000     0.76180000000000
H4     H      0.63015000000000     0.41171000000000     0.23820000000000
H5     H      0.19369000000000     0.82034000000000     0.03292000000000
H5     H      0.80631000000000     0.17966000000000     0.96708000000000
N3     N      0.26210000000000     0.24882000000000     0.15572000000000
N3     N      0.73790000000000     0.75118000000000     0.84428000000000
H6     H      0.41189000000000     0.03704000000000     0.08209000000000
H6     H      0.58811000000000     0.96296000000000     0.91791000000000
H7     H      0.18268000000000     0.25915000000000     0.32267000000000
H7     H      0.81732000000000     0.74085000000000     0.67733000000000
C1     C      0.38377000000000     0.97695000000000     0.51075000000000
C1     C      0.61623000000000     0.02305000000000     0.48925000000000
C2     C      0.36539000000000     0.12178000000000     0.48404000000000
C2     C      0.63461000000000     0.87822000000000     0.51596000000000
C3     C      0.16722000000000     0.45332000000000     0.61142000000000
C3     C      0.83278000000000     0.54668000000000     0.38858000000000
C4     C      0.98232000000000     0.64891000000000     0.76358000000000
C4     C      0.01768000000000     0.35109000000000     0.23642000000000
C5     C      0.00345000000000     0.49665000000000     0.79323000000000
C5     C      0.99655000000000     0.50335000000000     0.20677000000000
C6     C      0.20216000000000     0.16440000000000     0.66767000000000
C6     C      0.79784000000000     0.83560000000000     0.33233000000000
H1     H      0.53914000000000     0.72086000000000     0.40575000000000
H1     H      0.46086000000000     0.27914000000000     0.59425000000000
H2     H      0.50825000000000     0.97606000000000     0.35600000000000
H2     H      0.49175000000000     0.02394000000000     0.64400000000000
H3     H      0.86391000000000     0.63966000000000     0.91004000000000
H3     H      0.13609000000000     0.36034000000000     0.08996000000000
H4     H      0.21479000000000     0.05548000000000     0.68613000000000
H4     H      0.78521000000000     0.94452000000000     0.31387000000000
C7     C      0.76419000000000     0.01747000000000     0.88639000000000
C7     C      0.23581000000000     0.98253000000000     0.11361000000000
O1     O      0.72055000000000     0.18927000000000     0.86591000000000
O1     O      0.27945000000000     0.81073000000000     0.13409000000000
O2     O      0.60772000000000     0.17659000000000     0.00565000000000
O2     O      0.39228000000000     0.82341000000000     0.99435000000000
H5     H      0.48794000000000     0.40957000000000     0.05558000000000
H5     H      0.51206000000000     0.59043000000000     0.94442000000000
C8     C      0.16629000000000     0.58442000000000     0.56883000000000
C8     C      0.83371000000000     0.41558000000000     0.43117000000000
H6     H      0.05417000000000     0.71961000000000     0.74791000000000
H6     H      0.94583000000000     0.28039000000000     0.25209000000000
H7     H      0.32164000000000     0.37945000000000     0.48377000000000
H7     H      0.67836000000000     0.62055000000000     0.51623000000000
H8     H      0.12444000000000     0.75195000000000     0.43980000000000
H8     H      0.87556000000000     0.24805000000000     0.56020000000000
