data_default
_cell_volume          1246.216279
_symmetry_space_group_name_H-M 'P 1'
_symmetry_Int_Tables_number 1
loop_
_symmetry_equiv_pos_site_id
_symmetry_equiv_pos_as_xyz
1 x,y,z
_cell_length_a         7.2644858863
_cell_length_b        13.8181446849
_cell_length_c        13.6371431736
_cell_angle_alpha        90.0000
_cell_angle_beta        65.5558
_cell_angle_gamma        90.0000
_cell_formula_units_Z 1
loop_
_atom_site_label
_atom_site_type_symbol
_atom_site_fract_x
_atom_site_fract_y
_atom_site_fract_z
C1_0   C      0.32371452143725     0.47156428452106     0.68990832693549
C1_0   C      0.67628547856275     0.97156428452106     0.81009167306451
C1_0   C      0.67628547856275     0.52843571547894     0.31009167306451
C1_0   C      0.32371452143725     0.02843571547894     0.18990832693549
C2_0   C      0.12304392845618     0.45610765625918     0.78207829100899
C2_0   C      0.87695607154382     0.95610765625919     0.71792170899101
C2_0   C      0.87695607154382     0.54389234374081     0.21792170899101
C2_0   C      0.12304392845618     0.04389234374082     0.28207829100899
H3_0   H      0.31285849346371     0.46384652554479     0.61258141353756
H3_0   H      0.68714150653629     0.96384652554479     0.88741858646244
H3_0   H      0.68714150653629     0.53615347445521     0.38741858646244
H3_0   H      0.31285849346371     0.03615347445521     0.11258141353756
H4_0   H      0.43653330396113     0.42135431626717     0.69401637639239
H4_0   H      0.56346669603887     0.92135431626717     0.80598362360761
H4_0   H      0.56346669603887     0.57864568373283     0.30598362360761
H4_0   H      0.43653330396113     0.07864568373283     0.19401637639239
H5_0   H      0.37837688608997     0.54522606580911     0.69293107021471
H5_0   H      0.62162311391003     0.04522606580911     0.80706892978529
H5_0   H      0.62162311391003     0.45477393419089     0.30706892978529
H5_0   H      0.37837688608997     0.95477393419089     0.19293107021471
N6_0   N      0.95990060315935     0.49398710281920     0.77357938773423
N6_0   N      0.04009939684065     0.99398710281920     0.72642061226577
N6_0   N      0.04009939684065     0.50601289718080     0.22642061226577
N6_0   N      0.95990060315935     0.00601289718080     0.27357938773423
C7_0   C      0.10327177119184     0.40787046986580     0.87576943640090
C7_0   C      0.89672822880816     0.90787046986580     0.62423056359910
C7_0   C      0.89672822880816     0.59212953013420     0.12423056359910
C7_0   C      0.10327177119184     0.09212953013420     0.37576943640090
C8_0   C      0.77652770589786     0.48708353988298     0.85868821137115
C8_0   C      0.22347229410214     0.98708353988298     0.64131178862885
C8_0   C      0.22347229410214     0.51291646011702     0.14131178862885
C8_0   C      0.77652770589786     0.01291646011702     0.35868821137115
C9_0   C      0.91134918583674     0.40526672630037     0.95972851690735
C9_0   C      0.08865081416326     0.90526672630037     0.54027148309265
C9_0   C      0.08865081416326     0.59473327369963     0.04027148309265
C9_0   C      0.91134918583674     0.09473327369963     0.45972851690735
H11_0  H      0.23303170886954     0.37614122135106     0.88373306341729
H11_0  H      0.76696829113046     0.87614122135106     0.61626693658271
H11_0  H      0.76696829113046     0.62385877864894     0.11626693658271
H11_0  H      0.23303170886954     0.12385877864894     0.38373306341729
N10_0  N      0.74866648782994     0.44449796241848     0.95354733739329
N10_0  N      0.25133351217006     0.94449796241849     0.54645266260671
N10_0  N      0.25133351217006     0.55550203758151     0.04645266260671
N10_0  N      0.74866648782994     0.05550203758152     0.45354733739329
N12_0  N      0.61555139189700     0.52466992430511     0.84818689387784
N12_0  N      0.38444860810300     0.02466992430511     0.65181310612216
N12_0  N      0.38444860810300     0.47533007569489     0.15181310612216
N12_0  N      0.61555139189700     0.97533007569489     0.34818689387784
H13_0  H      0.88703236489249     0.37093301802580     0.03619992994916
H13_0  H      0.11296763510751     0.87093301802580     0.46380007005084
H13_0  H      0.11296763510751     0.62906698197420     0.96380007005084
H13_0  H      0.88703236489249     0.12906698197420     0.53619992994916
H14_0  H      0.63955257626504     0.56306924873555     0.77937121788251
H14_0  H      0.36044742373496     0.06306924873555     0.72062878211749
H14_0  H      0.36044742373496     0.43693075126445     0.22062878211749
H14_0  H      0.63955257626504     0.93693075126445     0.27937121788251
H15_0  H      0.48356603669619     0.53384831711585     0.91709601239149
H15_0  H      0.51643396330381     0.03384831711585     0.58290398760851
H15_0  H      0.51643396330381     0.46615168288415     0.08290398760851
H15_0  H      0.48356603669619     0.96615168288415     0.41709601239149
H18_1  H      0.98748555977901     0.54231703440604     0.67153669508230
H18_1  H      0.01251444022099     0.04231703440604     0.82846330491770
H18_1  H      0.01251444022099     0.45768296559396     0.32846330491770
H18_1  H      0.98748555977901     0.95768296559396     0.17153669508230
O17_1  O      0.03517600223066     0.57517913273679     0.59231597733474
O17_1  O      0.96482399776934     0.07517913273679     0.90768402266526
O17_1  O      0.96482399776934     0.42482086726321     0.40768402266526
O17_1  O      0.03517600223066     0.92482086726321     0.09231597733474
C11_1  C      0.89265011366863     0.62548614220877     0.57885869193883
C11_1  C      0.10734988633137     0.12548614220877     0.92114130806117
C11_1  C      0.10734988633137     0.37451385779123     0.42114130806117
C11_1  C      0.89265011366863     0.87451385779123     0.07885869193883
C6_1   C      0.96313255064288     0.67326220522400     0.47115282831085
C6_1   C      0.03686744935712     0.17326220522400     0.02884717168915
C6_1   C      0.03686744935712     0.32673779477600     0.52884717168915
C6_1   C      0.96313255064288     0.82673779477600     0.97115282831085
O16_1  O      0.71711580739563     0.63364804902105     0.64985580543357
O16_1  O      0.28288419260437     0.13364804902105     0.85014419456643
O16_1  O      0.28288419260437     0.36635195097895     0.35014419456643
O16_1  O      0.71711580739563     0.86635195097895     0.14985580543357
C2_1   C      0.82968933582645     0.71973798649451     0.43439354572820
C2_1   C      0.17031066417355     0.21973798649451     0.06560645427180
C2_1   C      0.17031066417355     0.28026201350549     0.56560645427180
C2_1   C      0.82968933582645     0.78026201350549     0.93439354572820
C8_1   C      0.17176594736749     0.67249512840829     0.40556215158731
C8_1   C      0.82823405263251     0.17249512840829     0.09443784841269
C8_1   C      0.82823405263251     0.32750487159171     0.59443784841269
C8_1   C      0.17176594736749     0.82750487159171     0.90556215158731
C1_1   C      0.60465863692745     0.72710173695155     0.49822647317498
C1_1   C      0.39534136307255     0.22710173695155     0.00177352682502
C1_1   C      0.39534136307255     0.27289826304845     0.50177352682502
C1_1   C      0.60465863692745     0.77289826304845     0.99822647317498
C7_1   C      0.91348784341504     0.76147170449872     0.33145153416523
C7_1   C      0.08651215658496     0.26147170449872     0.16854846583477
C7_1   C      0.08651215658496     0.23852829550128     0.66854846583477
C7_1   C      0.91348784341504     0.73852829550128     0.83145153416523
C10_1  C      0.25171963653954     0.71718499652411     0.30529633130048
C10_1  C      0.74828036346046     0.21718499652411     0.19470366869952
C10_1  C      0.74828036346046     0.28281500347589     0.69470366869952
C10_1  C      0.25171963653954     0.78281500347589     0.80529633130048
H13_1  H      0.27007094106317     0.63640516718243     0.43615824420670
H13_1  H      0.72992905893683     0.13640516718243     0.06384175579330
H13_1  H      0.72992905893683     0.36359483281757     0.56384175579330
H13_1  H      0.27007094106317     0.86359483281757     0.93615824420670
H3_1   H      0.53405778333980     0.75858848656554     0.44850122736487
H3_1   H      0.46594221666020     0.25858848656554     0.05149877263513
H3_1   H      0.46594221666020     0.24141151343446     0.55149877263513
H3_1   H      0.53405778333980     0.74141151343446     0.94850122736487
H4_1   H      0.56676871203975     0.77352672510882     0.56921380572760
H4_1   H      0.43323128796025     0.27352672510882     0.93078619427240
H4_1   H      0.43323128796025     0.22647327489118     0.43078619427240
H4_1   H      0.56676871203975     0.72647327489118     0.06921380572760
H5_1   H      0.53532868670166     0.65673636301505     0.52909068416681
H5_1   H      0.46467131329834     0.15673636301505     0.97090931583319
H5_1   H      0.46467131329834     0.34326363698495     0.47090931583319
H5_1   H      0.53532868670166     0.84326363698495     0.02909068416681
C9_1   C      0.12081091280735     0.76117740414451     0.26754752411032
C9_1   C      0.87918908719265     0.26117740414451     0.23245247588968
C9_1   C      0.87918908719265     0.23882259585549     0.73245247588968
C9_1   C      0.12081091280735     0.73882259585549     0.76754752411032
H12_1  H      0.81218832659315     0.79510819760579     0.30086003272617
H12_1  H      0.18781167340685     0.29510819760579     0.19913996727383
H12_1  H      0.18781167340685     0.20489180239421     0.69913996727383
H12_1  H      0.81218832659315     0.70489180239421     0.80086003272617
H15_1  H      0.41433943707564     0.71815518379901     0.25684724820113
H15_1  H      0.58566056292436     0.21815518379901     0.24315275179887
H15_1  H      0.58566056292436     0.28184481620099     0.74315275179887
H15_1  H      0.41433943707564     0.78184481620099     0.75684724820113
H14_1  H      0.17882167243849     0.79509593798626     0.18843424002310
H14_1  H      0.82117832756151     0.29509593798626     0.31156575997690
H14_1  H      0.82117832756151     0.20490406201374     0.81156575997690
H14_1  H      0.17882167243849     0.70490406201374     0.68843424002310
