data_default
_cell_volume          1303.670989
_symmetry_space_group_name_H-M 'P 1'
_symmetry_Int_Tables_number 1
loop_
_symmetry_equiv_pos_site_id
_symmetry_equiv_pos_as_xyz
1 x,y,z
_cell_length_a        15.9777000000
_cell_length_b         4.8934000000
_cell_length_c        18.9345000000
_cell_angle_alpha        90.0000
_cell_angle_beta        61.7174
_cell_angle_gamma        90.0000
_cell_formula_units_Z 1
loop_
_atom_site_label
_atom_site_type_symbol
_atom_site_fract_x
_atom_site_fract_y
_atom_site_fract_z
C1     C      0.77761900000000     0.89566600000000     0.68885200000000
C1     C      0.22238100000000     0.39566600000000     0.81114800000000
C1     C      0.22238100000000     0.10433400000000     0.31114800000000
C1     C      0.77761900000000     0.60433400000000     0.18885200000000
C2     C      0.71735500000000     0.05091000000000     0.66873700000000
C2     C      0.28264500000000     0.55091000000000     0.83126300000000
C2     C      0.28264500000000     0.94909000000000     0.33126300000000
C2     C      0.71735500000000     0.44909000000000     0.16873700000000
C3     C      0.75999600000000     0.24656000000000     0.60794000000000
C3     C      0.24000400000000     0.74656000000000     0.89206000000000
C3     C      0.24000400000000     0.75344000000000     0.39206000000000
C3     C      0.75999600000000     0.25344000000000     0.10794000000000
C4     C      0.85790700000000     0.28976000000000     0.56814900000000
C4     C      0.14209300000000     0.78976000000000     0.93185100000000
C4     C      0.14209300000000     0.71024000000000     0.43185100000000
C4     C      0.85790700000000     0.21024000000000     0.06814900000000
C5     C      0.91635700000000     0.13487000000000     0.58876800000000
C5     C      0.08364300000000     0.63487000000000     0.91123200000000
C5     C      0.08364300000000     0.86513000000000     0.41123200000000
C5     C      0.91635700000000     0.36513000000000     0.08876800000000
C6     C      0.87622800000000     0.93879200000000     0.64888000000000
C6     C      0.12377200000000     0.43879200000000     0.85112000000000
C6     C      0.12377200000000     0.06120800000000     0.35112000000000
C6     C      0.87622800000000     0.56120800000000     0.14888000000000
C7     C      0.73755300000000     0.68425300000000     0.75272300000000
C7     C      0.26244700000000     0.18425300000000     0.74727700000000
C7     C      0.26244700000000     0.31574700000000     0.24727700000000
C7     C      0.73755300000000     0.81574700000000     0.25272300000000
C8     C      0.61098300000000     0.01718000000000     0.70870000000000
C8     C      0.38901700000000     0.51718000000000     0.79130000000000
C8     C      0.38901700000000     0.98282000000000     0.29130000000000
C8     C      0.61098300000000     0.48282000000000     0.20870000000000
H1     H      0.77115900000000     0.42400900000000     0.80659200000000
H1     H      0.22884100000000     0.92400900000000     0.69340800000000
H1     H      0.22884100000000     0.57599100000000     0.19340800000000
H1     H      0.77115900000000     0.07599100000000     0.30659200000000
H2     H      0.59101400000000     0.81055700000000     0.70152500000000
H2     H      0.40898600000000     0.31055700000000     0.79847500000000
H2     H      0.40898600000000     0.18944300000000     0.29847500000000
H2     H      0.59101400000000     0.68944300000000     0.20152500000000
H3     H      0.58117700000000     0.16033000000000     0.68253100000000
H3     H      0.41882300000000     0.66033000000000     0.81746900000000
H3     H      0.41882300000000     0.83967000000000     0.31746900000000
H3     H      0.58117700000000     0.33967000000000     0.18253100000000
H4     H      0.57875900000000     0.05433000000000     0.77292700000000
H4     H      0.42124100000000     0.55433000000000     0.72707300000000
H4     H      0.42124100000000     0.94567000000000     0.22707300000000
H4     H      0.57875900000000     0.44567000000000     0.27292700000000
H5     H      0.71495100000000     0.36761000000000     0.59165800000000
H5     H      0.28504900000000     0.86761000000000     0.90834200000000
H5     H      0.28504900000000     0.63239000000000     0.40834200000000
H5     H      0.71495100000000     0.13239000000000     0.09165800000000
H6     H      0.88815700000000     0.44307000000000     0.52150100000000
H6     H      0.11184300000000     0.94307000000000     0.97849900000000
H6     H      0.11184300000000     0.55693000000000     0.47849900000000
H6     H      0.88815700000000     0.05693000000000     0.02150100000000
H7     H      0.99249000000000     0.16625000000000     0.55836900000000
H7     H      0.00751000000000     0.66625000000000     0.94163100000000
H7     H      0.00751000000000     0.83375000000000     0.44163100000000
H7     H      0.99249000000000     0.33375000000000     0.05836900000000
H8     H      0.92080500000000     0.81757500000000     0.66533800000000
H8     H      0.07919500000000     0.31757500000000     0.83466200000000
H8     H      0.07919500000000     0.18242500000000     0.33466200000000
H8     H      0.92080500000000     0.68242500000000     0.16533800000000
O1     O      0.80586700000000     0.55491000000000     0.76407300000000
O1     O      0.19413300000000     0.05491000000000     0.73592700000000
O1     O      0.19413300000000     0.44509000000000     0.23592700000000
O1     O      0.80586700000000     0.94509000000000     0.26407300000000
O2     O      0.65359100000000     0.62454500000000     0.79248300000000
O2     O      0.34640900000000     0.12454500000000     0.70751700000000
O2     O      0.34640900000000     0.37545500000000     0.20751700000000
O2     O      0.65359100000000     0.87545500000000     0.29248300000000
C9     C      0.77976600000000     0.79589900000000     0.94332900000000
C9     C      0.22023400000000     0.29589900000000     0.55667100000000
C9     C      0.22023400000000     0.20410100000000     0.05667100000000
C9     C      0.77976600000000     0.70410100000000     0.44332900000000
C10    C      0.68320600000000     0.74179800000000     0.98968000000000
C10    C      0.31679400000000     0.24179800000000     0.51032000000000
C10    C      0.31679400000000     0.25820200000000     0.01032000000000
C10    C      0.68320600000000     0.75820200000000     0.48968000000000
C11    C      0.64755000000000     0.08793000000000     0.92893400000000
C11    C      0.35245000000000     0.58793000000000     0.57106600000000
C11    C      0.35245000000000     0.91207000000000     0.07106600000000
C11    C      0.64755000000000     0.41207000000000     0.42893400000000
C12    C      0.80483500000000     0.01072000000000     0.88861600000000
C12    C      0.19516500000000     0.51072000000000     0.61138400000000
C12    C      0.19516500000000     0.98928000000000     0.11138400000000
C12    C      0.80483500000000     0.48928000000000     0.38861600000000
C13    C      0.90631400000000     0.09091000000000     0.83493900000000
C13    C      0.09368600000000     0.59091000000000     0.66506100000000
C13    C      0.09368600000000     0.90909000000000     0.16506100000000
C13    C      0.90631400000000     0.40909000000000     0.33493900000000
H9     H      0.92255300000000     0.07498000000000     0.77235900000000
H9     H      0.07744700000000     0.57498000000000     0.72764100000000
H9     H      0.07744700000000     0.92502000000000     0.22764100000000
H9     H      0.92255300000000     0.42502000000000     0.27235900000000
H10    H      0.95524200000000     0.96158300000000     0.84479700000000
H10    H      0.04475800000000     0.46158300000000     0.65520300000000
H10    H      0.04475800000000     0.03841700000000     0.15520300000000
H10    H      0.95524200000000     0.53841700000000     0.34479700000000
H11    H      0.91749100000000     0.30287000000000     0.84595800000000
H11    H      0.08250900000000     0.80287000000000     0.65404200000000
H11    H      0.08250900000000     0.69713000000000     0.15404200000000
H11    H      0.91749100000000     0.19713000000000     0.34595800000000
H12    H      0.51150900000000     0.19163000000000     0.95596800000000
H12    H      0.48849100000000     0.69163000000000     0.54403200000000
H12    H      0.48849100000000     0.80837000000000     0.04403200000000
H12    H      0.51150900000000     0.30837000000000     0.45596800000000
H13    H      0.60052700000000     0.39016000000000     0.88164200000000
H13    H      0.39947300000000     0.89016000000000     0.61835800000000
H13    H      0.39947300000000     0.60984000000000     0.11835800000000
H13    H      0.60052700000000     0.10984000000000     0.38164200000000
H14    H      0.65863500000000     0.57772600000000     0.03343000000000
H14    H      0.34136500000000     0.07772600000000     0.46657000000000
H14    H      0.34136500000000     0.42227400000000     0.96657000000000
H14    H      0.65863500000000     0.92227400000000     0.53343000000000
H15    H      0.83278900000000     0.67661600000000     0.94957000000000
H15    H      0.16721100000000     0.17661600000000     0.55043000000000
H15    H      0.16721100000000     0.32338400000000     0.05043000000000
H15    H      0.83278900000000     0.82338400000000     0.44957000000000
N1     N      0.61544400000000     0.88462900000000     0.98375300000000
N1     N      0.38455600000000     0.38462900000000     0.51624700000000
N1     N      0.38455600000000     0.11537100000000     0.01624700000000
N1     N      0.61544400000000     0.61537100000000     0.48375300000000
N2     N      0.73874300000000     0.15863000000000     0.88099900000000
N2     N      0.26125700000000     0.65863000000000     0.61900100000000
N2     N      0.26125700000000     0.84137000000000     0.11900100000000
N2     N      0.73874300000000     0.34137000000000     0.38099900000000
N3     N      0.58031100000000     0.23706000000000     0.92149800000000
N3     N      0.41968900000000     0.73706000000000     0.57850200000000
N3     N      0.41968900000000     0.76294000000000     0.07850200000000
N3     N      0.58031100000000     0.26294000000000     0.42149800000000
