data_default
_cell_volume          1190.642635
_symmetry_space_group_name_H-M 'P 1'
_symmetry_Int_Tables_number 1
loop_
_symmetry_equiv_pos_site_id
_symmetry_equiv_pos_as_xyz
1 x,y,z
_cell_length_a        13.9240000000
_cell_length_b         4.2060000000
_cell_length_c        20.4580000000
_cell_angle_alpha        90.0000
_cell_angle_beta        83.6000
_cell_angle_gamma        90.0000
_cell_formula_units_Z 1
loop_
_atom_site_label
_atom_site_type_symbol
_atom_site_fract_x
_atom_site_fract_y
_atom_site_fract_z
C1     C      0.72810000000000     0.63930000000000     0.87230000000000
C1     C      0.27190000000000     0.36070000000000     0.12770000000000
C1     C      0.27190000000000     0.13930000000000     0.62770000000000
C1     C      0.72810000000000     0.86070000000000     0.37230000000000
C2     C      0.62740000000000     0.60920000000000     0.88120000000000
C2     C      0.37260000000000     0.39080000000000     0.11880000000000
C2     C      0.37260000000000     0.10920000000000     0.61880000000000
C2     C      0.62740000000000     0.89080000000000     0.38120000000000
C3     C      0.58200000000000     0.41610000000000     0.93020000000000
C3     C      0.41800000000000     0.58390000000000     0.06980000000000
C3     C      0.41800000000000     0.91610000000000     0.56980000000000
C3     C      0.58200000000000     0.08390000000000     0.43020000000000
C4     C      0.63810000000000     0.24990000000000     0.97100000000000
C4     C      0.36190000000000     0.75010000000000     0.02900000000000
C4     C      0.36190000000000     0.74990000000000     0.52900000000000
C4     C      0.63810000000000     0.25010000000000     0.47100000000000
C5     C      0.73790000000000     0.27910000000000     0.96230000000000
C5     C      0.26210000000000     0.72090000000000     0.03770000000000
C5     C      0.26210000000000     0.77910000000000     0.53770000000000
C5     C      0.73790000000000     0.22090000000000     0.46230000000000
C6     C      0.78550000000000     0.47210000000000     0.91330000000000
C6     C      0.21450000000000     0.52790000000000     0.08670000000000
C6     C      0.21450000000000     0.97210000000000     0.58670000000000
C6     C      0.78550000000000     0.02790000000000     0.41330000000000
C7     C      0.89290000000000     0.49040000000000     0.90710000000000
C7     C      0.10710000000000     0.50960000000000     0.09290000000000
C7     C      0.10710000000000     0.99040000000000     0.59290000000000
C7     C      0.89290000000000     0.00960000000000     0.40710000000000
C8     C      0.77090000000000     0.84970000000000     0.81890000000000
C8     C      0.22910000000000     0.15030000000000     0.18110000000000
C8     C      0.22910000000000     0.34970000000000     0.68110000000000
C8     C      0.77090000000000     0.65030000000000     0.31890000000000
O9     O      0.70910000000000     0.98900000000000     0.78510000000000
O9     O      0.29090000000000     0.01100000000000     0.21490000000000
O9     O      0.29090000000000     0.48900000000000     0.71490000000000
O9     O      0.70910000000000     0.51100000000000     0.28510000000000
O10    O      0.86000000000000     0.88800000000000     0.80800000000000
O10    O      0.14000000000000     0.11200000000000     0.19200000000000
O10    O      0.14000000000000     0.38800000000000     0.69200000000000
O10    O      0.86000000000000     0.61200000000000     0.30800000000000
C11    C      0.60840000000000     0.40970000000000     0.68130000000000
C11    C      0.39160000000000     0.59030000000000     0.31870000000000
C11    C      0.39160000000000     0.90970000000000     0.81870000000000
C11    C      0.60840000000000     0.09030000000000     0.18130000000000
C12    C      0.71100000000000     0.48900000000000     0.66010000000000
C12    C      0.28900000000000     0.51100000000000     0.33990000000000
C12    C      0.28900000000000     0.98900000000000     0.83990000000000
C12    C      0.71100000000000     0.01100000000000     0.16010000000000
N13    N      0.77700000000000     0.35100000000000     0.69370000000000
N13    N      0.22300000000000     0.64900000000000     0.30630000000000
N13    N      0.22300000000000     0.85100000000000     0.80630000000000
N13    N      0.77700000000000     0.14900000000000     0.19370000000000
C14    C      0.74000000000000     0.69430000000000     0.60860000000000
C14    C      0.26000000000000     0.30570000000000     0.39140000000000
C14    C      0.26000000000000     0.19430000000000     0.89140000000000
C14    C      0.74000000000000     0.80570000000000     0.10860000000000
C15    C      0.87210000000000     0.41390000000000     0.67670000000000
C15    C      0.12790000000000     0.58610000000000     0.32330000000000
C15    C      0.12790000000000     0.91390000000000     0.82330000000000
C15    C      0.87210000000000     0.08610000000000     0.17670000000000
C16    C      0.83910000000000     0.74530000000000     0.59460000000000
C16    C      0.16090000000000     0.25470000000000     0.40540000000000
C16    C      0.16090000000000     0.24530000000000     0.90540000000000
C16    C      0.83910000000000     0.75470000000000     0.09460000000000
N17    N      0.93510000000000     0.27160000000000     0.71130000000000
N17    N      0.06490000000000     0.72840000000000     0.28870000000000
N17    N      0.06490000000000     0.77160000000000     0.78870000000000
N17    N      0.93510000000000     0.22840000000000     0.21130000000000
N18    N      0.90520000000000     0.61060000000000     0.62720000000000
N18    N      0.09480000000000     0.38940000000000     0.37280000000000
N18    N      0.09480000000000     0.11060000000000     0.87280000000000
N18    N      0.90520000000000     0.88940000000000     0.12720000000000
H19    H      0.58590000000000     0.74400000000000     0.84810000000000
H19    H      0.41410000000000     0.25600000000000     0.15190000000000
H19    H      0.41410000000000     0.24400000000000     0.65190000000000
H19    H      0.58590000000000     0.75600000000000     0.34810000000000
H20    H      0.50320000000000     0.39500000000000     0.93660000000000
H20    H      0.49680000000000     0.60500000000000     0.06340000000000
H20    H      0.49680000000000     0.89500000000000     0.56340000000000
H20    H      0.50320000000000     0.10500000000000     0.43660000000000
H21    H      0.60360000000000     0.09570000000000     0.01010000000000
H21    H      0.39640000000000     0.90430000000000     0.98990000000000
H21    H      0.39640000000000     0.59570000000000     0.48990000000000
H21    H      0.60360000000000     0.40430000000000     0.51010000000000
H22    H      0.78200000000000     0.14780000000000     0.99440000000000
H22    H      0.21800000000000     0.85220000000000     0.00560000000000
H22    H      0.21800000000000     0.64780000000000     0.50560000000000
H22    H      0.78200000000000     0.35220000000000     0.49440000000000
H23    H      0.92120000000000     0.33880000000000     0.94460000000000
H23    H      0.07880000000000     0.66120000000000     0.05540000000000
H23    H      0.07880000000000     0.83880000000000     0.55540000000000
H23    H      0.92120000000000     0.16120000000000     0.44460000000000
H24    H      0.92560000000000     0.41650000000000     0.85780000000000
H24    H      0.07440000000000     0.58350000000000     0.14220000000000
H24    H      0.07440000000000     0.91650000000000     0.64220000000000
H24    H      0.92560000000000     0.08350000000000     0.35780000000000
H25    H      0.91820000000000     0.73650000000000     0.91250000000000
H25    H      0.08180000000000     0.26350000000000     0.08750000000000
H25    H      0.08180000000000     0.23650000000000     0.58750000000000
H25    H      0.91820000000000     0.76350000000000     0.41250000000000
H26    H      0.74460000000000     0.14750000000000     0.74500000000000
H26    H      0.25540000000000     0.85250000000000     0.25500000000000
H26    H      0.25540000000000     0.64750000000000     0.75500000000000
H26    H      0.74460000000000     0.35250000000000     0.24500000000000
H27    H      0.55940000000000     0.53350000000000     0.65140000000000
H27    H      0.44060000000000     0.46650000000000     0.34860000000000
H27    H      0.44060000000000     0.03350000000000     0.84860000000000
H27    H      0.55940000000000     0.96650000000000     0.15140000000000
H28    H      0.59660000000000     0.15070000000000     0.67820000000000
H28    H      0.40340000000000     0.84930000000000     0.32180000000000
H28    H      0.40340000000000     0.65070000000000     0.82180000000000
H28    H      0.59660000000000     0.34930000000000     0.17820000000000
H29    H      0.58930000000000     0.47350000000000     0.73360000000000
H29    H      0.41070000000000     0.52650000000000     0.26640000000000
H29    H      0.41070000000000     0.97350000000000     0.76640000000000
H29    H      0.58930000000000     0.02650000000000     0.23360000000000
H30    H      0.68740000000000     0.80970000000000     0.58050000000000
H30    H      0.31260000000000     0.19030000000000     0.41950000000000
H30    H      0.31260000000000     0.30970000000000     0.91950000000000
H30    H      0.68740000000000     0.69030000000000     0.08050000000000
H31    H      0.86670000000000     0.90530000000000     0.55420000000000
H31    H      0.13330000000000     0.09470000000000     0.44580000000000
H31    H      0.13330000000000     0.40530000000000     0.94580000000000
H31    H      0.86670000000000     0.59470000000000     0.05420000000000
H32    H      0.91020000000000     0.11590000000000     0.75060000000000
H32    H      0.08980000000000     0.88410000000000     0.24940000000000
H32    H      0.08980000000000     0.61590000000000     0.74940000000000
H32    H      0.91020000000000     0.38410000000000     0.25060000000000
H33    H      0.00620000000000     0.31990000000000     0.69820000000000
H33    H      0.99380000000000     0.68010000000000     0.30180000000000
H33    H      0.99380000000000     0.81990000000000     0.80180000000000
H33    H      0.00620000000000     0.18010000000000     0.19820000000000
