data_default
_cell_volume          1252.482314
_symmetry_space_group_name_H-M 'P 1'
_symmetry_Int_Tables_number 1
loop_
_symmetry_equiv_pos_site_id
_symmetry_equiv_pos_as_xyz
1 x,y,z
_cell_length_a        15.0146000000
_cell_length_b         7.1615000000
_cell_length_c        11.9684000000
_cell_angle_alpha        90.0000
_cell_angle_beta       103.2860
_cell_angle_gamma        90.0000
_cell_formula_units_Z 1
loop_
_atom_site_label
_atom_site_type_symbol
_atom_site_fract_x
_atom_site_fract_y
_atom_site_fract_z
O10    O      0.07061000000000     0.86610000000000     0.57303000000000
O10    O      0.92939000000000     0.36610000000000     0.92697000000000
O10    O      0.92939000000000     0.13390000000000     0.42697000000000
O10    O      0.07061000000000     0.63390000000000     0.07303000000000
O11    O      0.01027000000000     0.81227000000000     0.38639000000000
O11    O      0.98973000000000     0.31227000000000     0.11361000000000
O11    O      0.98973000000000     0.18773000000000     0.61361000000000
O11    O      0.01027000000000     0.68773000000000     0.88639000000000
C1     C      0.17975000000000     0.21849000000000     0.48246000000000
C1     C      0.82025000000000     0.71849000000000     0.01754000000000
C1     C      0.82025000000000     0.78151000000000     0.51754000000000
C1     C      0.17975000000000     0.28151000000000     0.98246000000000
C2     C      0.10381000000000     0.57356000000000     0.49058000000000
C2     C      0.89619000000000     0.07356000000000     0.00942000000000
C2     C      0.89619000000000     0.42644000000000     0.50942000000000
C2     C      0.10381000000000     0.92644000000000     0.99058000000000
C3     C      0.19687000000000     0.31953000000000     0.58470000000000
C3     C      0.80313000000000     0.81953000000000     0.91530000000000
C3     C      0.80313000000000     0.68047000000000     0.41530000000000
C3     C      0.19687000000000     0.18047000000000     0.08470000000000
C4     C      0.12436000000000     0.29442000000000     0.38314000000000
C4     C      0.87564000000000     0.79442000000000     0.11686000000000
C4     C      0.87564000000000     0.70558000000000     0.61686000000000
C4     C      0.12436000000000     0.20558000000000     0.88314000000000
C5     C      0.08682000000000     0.47094000000000     0.38773000000000
C5     C      0.91318000000000     0.97094000000000     0.11227000000000
C5     C      0.91318000000000     0.52906000000000     0.61227000000000
C5     C      0.08682000000000     0.02906000000000     0.88773000000000
C6     C      0.16000000000000     0.49766000000000     0.59194000000000
C6     C      0.84000000000000     0.99766000000000     0.90806000000000
C6     C      0.84000000000000     0.50234000000000     0.40806000000000
C6     C      0.16000000000000     0.00234000000000     0.09194000000000
C9     C      0.06207000000000     0.76172000000000     0.49102000000000
C9     C      0.93793000000000     0.26172000000000     0.00898000000000
C9     C      0.93793000000000     0.23828000000000     0.50898000000000
C9     C      0.06207000000000     0.73828000000000     0.99102000000000
C15    C      0.18199000000000     0.59758000000000     0.70613000000000
C15    C      0.81801000000000     0.09758000000000     0.79387000000000
C15    C      0.81801000000000     0.40242000000000     0.29387000000000
C15    C      0.18199000000000     0.90242000000000     0.20613000000000
N23    N      0.45538000000000     0.27196000000000     0.09431000000000
N23    N      0.54462000000000     0.77196000000000     0.40569000000000
N23    N      0.54462000000000     0.72804000000000     0.90569000000000
N23    N      0.45538000000000     0.22804000000000     0.59431000000000
N24    N      0.41675000000000     0.94815000000000     0.11310000000000
N24    N      0.58325000000000     0.44815000000000     0.38690000000000
N24    N      0.58325000000000     0.05185000000000     0.88690000000000
N24    N      0.41675000000000     0.55185000000000     0.61310000000000
N31    N      0.50187000000000     0.11402000000000     0.26561000000000
N31    N      0.49813000000000     0.61402000000000     0.23439000000000
N31    N      0.49813000000000     0.88598000000000     0.73439000000000
N31    N      0.50187000000000     0.38598000000000     0.76561000000000
C19    C      0.36650000000000     0.10414000000000     0.93311000000000
C19    C      0.63350000000000     0.60414000000000     0.56689000000000
C19    C      0.63350000000000     0.89586000000000     0.06689000000000
C19    C      0.36650000000000     0.39586000000000     0.43311000000000
C20    C      0.45632000000000     0.11156000000000     0.15343000000000
C20    C      0.54368000000000     0.61156000000000     0.34657000000000
C20    C      0.54368000000000     0.88844000000000     0.84657000000000
C20    C      0.45632000000000     0.38844000000000     0.65343000000000
C21    C      0.37192000000000     0.94523000000000     0.00286000000000
C21    C      0.62808000000000     0.44523000000000     0.49714000000000
C21    C      0.62808000000000     0.05477000000000     0.99714000000000
C21    C      0.37192000000000     0.55477000000000     0.50286000000000
C22    C      0.41003000000000     0.26415000000000     0.98450000000000
C22    C      0.58997000000000     0.76415000000000     0.51550000000000
C22    C      0.58997000000000     0.73585000000000     0.01550000000000
C22    C      0.41003000000000     0.23585000000000     0.48450000000000
C27    C      0.32748000000000     0.76347000000000     0.95693000000000
C27    C      0.67252000000000     0.26347000000000     0.54307000000000
C27    C      0.67252000000000     0.23653000000000     0.04307000000000
C27    C      0.32748000000000     0.73653000000000     0.45693000000000
H7     H      0.04365000000000     0.53172000000000     0.31129000000000
H7     H      0.95635000000000     0.03172000000000     0.18871000000000
H7     H      0.95635000000000     0.46828000000000     0.68871000000000
H7     H      0.04365000000000     0.96828000000000     0.81129000000000
H8     H      0.20969000000000     0.08069000000000     0.48052000000000
H8     H      0.79031000000000     0.58069000000000     0.01948000000000
H8     H      0.79031000000000     0.91931000000000     0.51948000000000
H8     H      0.20969000000000     0.41931000000000     0.98052000000000
H12    H      0.98710000000000     0.93625000000000     0.39788000000000
H12    H      0.01290000000000     0.43625000000000     0.10212000000000
H12    H      0.01290000000000     0.06375000000000     0.60212000000000
H12    H      0.98710000000000     0.56375000000000     0.89788000000000
H13    H      0.24012000000000     0.25914000000000     0.66163000000000
H13    H      0.75988000000000     0.75914000000000     0.83837000000000
H13    H      0.75988000000000     0.74086000000000     0.33837000000000
H13    H      0.24012000000000     0.24086000000000     0.16163000000000
H14    H      0.11052000000000     0.21703000000000     0.30296000000000
H14    H      0.88948000000000     0.71703000000000     0.19704000000000
H14    H      0.88948000000000     0.78297000000000     0.69704000000000
H14    H      0.11052000000000     0.28297000000000     0.80296000000000
H16    H      0.12004000000000     0.63087000000000     0.73561000000000
H16    H      0.87996000000000     0.13087000000000     0.76439000000000
H16    H      0.87996000000000     0.36913000000000     0.26439000000000
H16    H      0.12004000000000     0.86913000000000     0.23561000000000
H17    H      0.22648000000000     0.51049000000000     0.77090000000000
H17    H      0.77352000000000     0.01049000000000     0.72910000000000
H17    H      0.77352000000000     0.48951000000000     0.22910000000000
H17    H      0.22648000000000     0.98951000000000     0.27090000000000
H18    H      0.21613000000000     0.73117000000000     0.70082000000000
H18    H      0.78387000000000     0.23117000000000     0.79918000000000
H18    H      0.78387000000000     0.26883000000000     0.29918000000000
H18    H      0.21613000000000     0.76883000000000     0.20082000000000
H25    H      0.33019000000000     0.10244000000000     0.84360000000000
H25    H      0.66981000000000     0.60244000000000     0.65640000000000
H25    H      0.66981000000000     0.89756000000000     0.15640000000000
H25    H      0.33019000000000     0.39756000000000     0.34360000000000
H26    H      0.40871000000000     0.39290000000000     0.93560000000000
H26    H      0.59129000000000     0.89290000000000     0.56440000000000
H26    H      0.59129000000000     0.60710000000000     0.06440000000000
H26    H      0.40871000000000     0.10710000000000     0.43560000000000
H28    H      0.33970000000000     0.65799000000000     0.02462000000000
H28    H      0.66030000000000     0.15799000000000     0.47538000000000
H28    H      0.66030000000000     0.34201000000000     0.97538000000000
H28    H      0.33970000000000     0.84201000000000     0.52462000000000
H29    H      0.25345000000000     0.78104000000000     0.92470000000000
H29    H      0.74655000000000     0.28104000000000     0.57530000000000
H29    H      0.74655000000000     0.21896000000000     0.07530000000000
H29    H      0.25345000000000     0.71896000000000     0.42470000000000
H30    H      0.35485000000000     0.71288000000000     0.88503000000000
H30    H      0.64515000000000     0.21288000000000     0.61497000000000
H30    H      0.64515000000000     0.28712000000000     0.11497000000000
H30    H      0.35485000000000     0.78712000000000     0.38503000000000
H32    H      0.53256000000000     0.23248000000000     0.29985000000000
H32    H      0.46744000000000     0.73248000000000     0.20015000000000
H32    H      0.46744000000000     0.76752000000000     0.70015000000000
H32    H      0.53256000000000     0.26752000000000     0.79985000000000
H33    H      0.50441000000000     0.99745000000000     0.31320000000000
H33    H      0.49559000000000     0.49745000000000     0.18680000000000
H33    H      0.49559000000000     0.00255000000000     0.68680000000000
H33    H      0.50441000000000     0.50255000000000     0.81320000000000
