data_default
_cell_volume          1192.245398
_symmetry_space_group_name_H-M 'P 1'
_symmetry_Int_Tables_number 1
loop_
_symmetry_equiv_pos_site_id
_symmetry_equiv_pos_as_xyz
1 x,y,z
_cell_length_a         7.1051000000
_cell_length_b        23.7023000000
_cell_length_c         9.2429000000
_cell_angle_alpha        90.0000
_cell_angle_beta       130.0090
_cell_angle_gamma        90.0000
_cell_formula_units_Z 1
loop_
_atom_site_label
_atom_site_type_symbol
_atom_site_fract_x
_atom_site_fract_y
_atom_site_fract_z
O25    O      0.68204000000000     0.02472000000000     0.33726000000000
O25    O      0.31796000000000     0.52472000000000     0.16274000000000
O25    O      0.31796000000000     0.97528000000000     0.66274000000000
O25    O      0.68204000000000     0.47528000000000     0.83726000000000
O26    O      0.75335000000000     0.96909000000000     0.56421000000000
O26    O      0.24665000000000     0.46909000000000     0.93579000000000
O26    O      0.24665000000000     0.03091000000000     0.43579000000000
O26    O      0.75335000000000     0.53091000000000     0.06421000000000
C16    C      0.15514000000000     0.14334000000000     0.94041000000000
C16    C      0.84486000000000     0.64334000000000     0.55959000000000
C16    C      0.84486000000000     0.85666000000000     0.05959000000000
C16    C      0.15514000000000     0.35666000000000     0.44041000000000
C17    C      0.90318000000000     0.06311000000000     0.65072000000000
C17    C      0.09682000000000     0.56311000000000     0.84928000000000
C17    C      0.09682000000000     0.93689000000000     0.34928000000000
C17    C      0.90318000000000     0.43689000000000     0.15072000000000
C18    C      0.06560000000000     0.15705000000000     0.75934000000000
C18    C      0.93440000000000     0.65705000000000     0.74066000000000
C18    C      0.93440000000000     0.84295000000000     0.24066000000000
C18    C      0.06560000000000     0.34295000000000     0.25934000000000
C19    C      0.11930000000000     0.08923000000000     0.97821000000000
C19    C      0.88070000000000     0.58923000000000     0.52179000000000
C19    C      0.88070000000000     0.91077000000000     0.02179000000000
C19    C      0.11930000000000     0.41077000000000     0.47821000000000
C20    C      0.99395000000000     0.04955000000000     0.83366000000000
C20    C      0.00605000000000     0.54955000000000     0.66634000000000
C20    C      0.00605000000000     0.95045000000000     0.16634000000000
C20    C      0.99395000000000     0.45045000000000     0.33366000000000
C21    C      0.93863000000000     0.11796000000000     0.61087000000000
C21    C      0.06137000000000     0.61796000000000     0.88913000000000
C21    C      0.06137000000000     0.88204000000000     0.38913000000000
C21    C      0.93863000000000     0.38204000000000     0.11087000000000
C24    C      0.77034000000000     0.01919000000000     0.50103000000000
C24    C      0.22966000000000     0.51919000000000     0.99897000000000
C24    C      0.22966000000000     0.98081000000000     0.49897000000000
C24    C      0.77034000000000     0.48081000000000     0.00103000000000
C30    C      0.84773000000000     0.13630000000000     0.41889000000000
C30    C      0.15227000000000     0.63630000000000     0.08111000000000
C30    C      0.15227000000000     0.86370000000000     0.58111000000000
C30    C      0.84773000000000     0.36370000000000     0.91889000000000
N5     N      0.70575000000000     0.15438000000000     0.01821000000000
N5     N      0.29425000000000     0.65438000000000     0.48179000000000
N5     N      0.29425000000000     0.84562000000000     0.98179000000000
N5     N      0.70575000000000     0.34562000000000     0.51821000000000
N6     N      0.47655000000000     0.11692000000000     0.70309000000000
N6     N      0.52345000000000     0.61692000000000     0.79691000000000
N6     N      0.52345000000000     0.88308000000000     0.29691000000000
N6     N      0.47655000000000     0.38308000000000     0.20309000000000
N13    N      0.59610000000000     0.06056000000000     0.95254000000000
N13    N      0.40390000000000     0.56056000000000     0.54746000000000
N13    N      0.40390000000000     0.93944000000000     0.04746000000000
N13    N      0.59610000000000     0.43944000000000     0.45254000000000
C1     C      0.58470000000000     0.21462000000000     0.76208000000000
C1     C      0.41530000000000     0.71462000000000     0.73792000000000
C1     C      0.41530000000000     0.78538000000000     0.23792000000000
C1     C      0.58470000000000     0.28538000000000     0.26208000000000
C2     C      0.59287000000000     0.11262000000000     0.88916000000000
C2     C      0.40713000000000     0.61262000000000     0.61084000000000
C2     C      0.40713000000000     0.88738000000000     0.11084000000000
C2     C      0.59287000000000     0.38738000000000     0.38916000000000
C3     C      0.47302000000000     0.16803000000000     0.64030000000000
C3     C      0.52698000000000     0.66803000000000     0.85970000000000
C3     C      0.52698000000000     0.83197000000000     0.35970000000000
C3     C      0.47302000000000     0.33197000000000     0.14030000000000
C4     C      0.69876000000000     0.20485000000000     0.95075000000000
C4     C      0.30124000000000     0.70485000000000     0.54925000000000
C4     C      0.30124000000000     0.79515000000000     0.04925000000000
C4     C      0.69876000000000     0.29515000000000     0.45075000000000
C9     C      0.34363000000000     0.17332000000000     0.43275000000000
C9     C      0.65637000000000     0.67332000000000     0.06725000000000
C9     C      0.65637000000000     0.82668000000000     0.56725000000000
C9     C      0.34363000000000     0.32668000000000     0.93275000000000
H22    H      0.96471000000000     0.00736000000000     0.86090000000000
H22    H      0.03529000000000     0.50736000000000     0.63910000000000
H22    H      0.03529000000000     0.99264000000000     0.13910000000000
H22    H      0.96471000000000     0.49264000000000     0.36090000000000
H23    H      0.25271000000000     0.17492000000000     0.05164000000000
H23    H      0.74729000000000     0.67492000000000     0.44836000000000
H23    H      0.74729000000000     0.82508000000000     0.94836000000000
H23    H      0.25271000000000     0.32508000000000     0.55164000000000
H27    H      0.66384000000000     0.94423000000000     0.45452000000000
H27    H      0.33616000000000     0.44423000000000     0.04548000000000
H27    H      0.33616000000000     0.05577000000000     0.54548000000000
H27    H      0.66384000000000     0.55577000000000     0.95452000000000
H28    H      0.09448000000000     0.19933000000000     0.73130000000000
H28    H      0.90552000000000     0.69933000000000     0.76870000000000
H28    H      0.90552000000000     0.80067000000000     0.26870000000000
H28    H      0.09448000000000     0.30067000000000     0.23130000000000
H29    H      0.18822000000000     0.07804000000000     0.11875000000000
H29    H      0.81178000000000     0.57804000000000     0.38125000000000
H29    H      0.81178000000000     0.92196000000000     0.88125000000000
H29    H      0.18822000000000     0.42196000000000     0.61875000000000
H31    H      0.64820000000000     0.13203000000000     0.31090000000000
H31    H      0.35180000000000     0.63203000000000     0.18910000000000
H31    H      0.35180000000000     0.86797000000000     0.68910000000000
H31    H      0.64820000000000     0.36797000000000     0.81090000000000
H32    H      0.89762000000000     0.18039000000000     0.42404000000000
H32    H      0.10238000000000     0.68039000000000     0.07596000000000
H32    H      0.10238000000000     0.81961000000000     0.57596000000000
H32    H      0.89762000000000     0.31961000000000     0.92404000000000
H33    H      0.92523000000000     0.11032000000000     0.37065000000000
H33    H      0.07477000000000     0.61032000000000     0.12935000000000
H33    H      0.07477000000000     0.88968000000000     0.62935000000000
H33    H      0.92523000000000     0.38968000000000     0.87065000000000
H7     H      0.58232000000000     0.25617000000000     0.71178000000000
H7     H      0.41768000000000     0.75617000000000     0.78822000000000
H7     H      0.41768000000000     0.74383000000000     0.28822000000000
H7     H      0.58232000000000     0.24383000000000     0.21178000000000
H8     H      0.78933000000000     0.23905000000000     0.05354000000000
H8     H      0.21067000000000     0.73905000000000     0.44646000000000
H8     H      0.21067000000000     0.76095000000000     0.94646000000000
H8     H      0.78933000000000     0.26095000000000     0.55354000000000
H10    H      0.26978000000000     0.13244000000000     0.36352000000000
H10    H      0.73022000000000     0.63244000000000     0.13648000000000
H10    H      0.73022000000000     0.86756000000000     0.63648000000000
H10    H      0.26978000000000     0.36756000000000     0.86352000000000
H11    H      0.19247000000000     0.20383000000000     0.36455000000000
H11    H      0.80753000000000     0.70383000000000     0.13545000000000
H11    H      0.80753000000000     0.79617000000000     0.63545000000000
H11    H      0.19247000000000     0.29617000000000     0.86455000000000
H12    H      0.47002000000000     0.18840000000000     0.41127000000000
H12    H      0.52998000000000     0.68840000000000     0.08873000000000
H12    H      0.52998000000000     0.81160000000000     0.58873000000000
H12    H      0.47002000000000     0.31160000000000     0.91127000000000
H14    H      0.68048000000000     0.05510000000000     0.09014000000000
H14    H      0.31952000000000     0.55510000000000     0.40986000000000
H14    H      0.31952000000000     0.94490000000000     0.90986000000000
H14    H      0.68048000000000     0.44490000000000     0.59014000000000
H15    H      0.51412000000000     0.02805000000000     0.86125000000000
H15    H      0.48588000000000     0.52805000000000     0.63875000000000
H15    H      0.48588000000000     0.97195000000000     0.13875000000000
H15    H      0.51412000000000     0.47195000000000     0.36125000000000
