data_grd.XV.1
# for CSP2007 there are compounds XII, XIII, XIV, XV
# this entry represents grds submission for compound XV choice 1
# Compound XV Choice 1
# Comment 5th lowest lattice energy structure
# E = -44.57 kJ/mol
loop_
_symmetry_equiv_pos_site_id
_symmetry_equiv_pos_as_xyz
1 x,y,z
2 -x,-y,-z
_cell_length_a 7.530697
_cell_length_b 7.028950
_cell_length_c 12.098970
_cell_angle_alpha 108.954482
_cell_angle_beta 94.272639
_cell_angle_gamma 97.025613
loop_
_atom_type_symbol
_atom_type_radius_bond
C 0.680000
O 0.680000
N 0.680000
H 0.230000
_symmetry_space_group_name_H-M 'P-1'
loop_
_atom_site_label
_atom_site_type_symbol
_atom_site_fract_x
_atom_site_fract_y
_atom_site_fract_z
C1 C 0.109512 -0.246555 -0.579668
C2 C 0.045085 -0.232582 -0.470634
C3 C -0.136287 -0.305576 -0.468133
C4 C -0.255289 -0.392060 -0.571080
C5 C -0.193080 -0.406443 -0.678772
C6 C -0.013440 -0.334432 -0.682027
C7 C 0.165440 -0.141472 -0.356644
O1 O 0.083228 -0.140457 -0.263086
O2 O 0.326109 -0.073382 -0.349570
H1 H 0.169815 -0.077295 -0.187543
H4 H -0.394937 -0.447573 -0.567284
H5 H -0.283957 -0.473529 -0.760211
H6 H 0.033877 -0.346256 -0.766336
H8 H -0.182071 -0.293063 -0.383649
C12 C 0.301593 -0.172773 -0.591861
H9 H 0.340889 -0.010194 -0.543143
H10 H 0.397027 -0.249178 -0.555844
H11 H 0.317271 -0.200633 -0.684686
N1 N 0.280891 0.007188 -0.062236
C8 C 0.368092 0.200700 -0.033286
N2 N 0.408063 0.335536 0.077687
C9 C 0.356013 0.268291 0.162626
C10 C 0.265537 0.072159 0.142435
C11 C 0.229860 -0.056610 0.025580
N3 N 0.418816 0.263654 -0.121520
H2 H 0.483471 0.407080 -0.100168
H3 H 0.392196 0.168441 -0.206893
H7 H 0.225066 0.022450 0.213935
H12 H 0.388016 0.376479 0.251965
C13 C 0.133471 -0.271836 -0.009203
H13 H 0.010688 -0.293071 -0.069091
H14 H 0.218485 -0.379089 -0.056538
H15 H 0.097347 -0.310114 0.067598

