data_default
_cell_volume          1208.364823
_symmetry_space_group_name_H-M 'P 1'
_symmetry_Int_Tables_number 1
loop_
_symmetry_equiv_pos_site_id
_symmetry_equiv_pos_as_xyz
1 x,y,z
_cell_length_a        11.8640000000
_cell_length_b         4.0195000000
_cell_length_c        25.5706000000
_cell_angle_alpha        90.0000
_cell_angle_beta        97.7120
_cell_angle_gamma        90.0000
_cell_formula_units_Z 1
loop_
_atom_site_label
_atom_site_type_symbol
_atom_site_fract_x
_atom_site_fract_y
_atom_site_fract_z
O25    O      0.11813000000000     0.57572000000000     0.18303000000000
O25    O      0.88187000000000     0.07572000000000     0.31697000000000
O25    O      0.88187000000000     0.42428000000000     0.81697000000000
O25    O      0.11813000000000     0.92428000000000     0.68303000000000
O26    O      0.30756000000000     0.54824000000000     0.18541000000000
O26    O      0.69244000000000     0.04824000000000     0.31459000000000
O26    O      0.69244000000000     0.45176000000000     0.81459000000000
O26    O      0.30756000000000     0.95176000000000     0.68541000000000
C16    C      0.21811000000000     0.23288000000000     0.02413000000000
C16    C      0.78189000000000     0.73288000000000     0.47587000000000
C16    C      0.78189000000000     0.76712000000000     0.97587000000000
C16    C      0.21811000000000     0.26712000000000     0.52413000000000
C17    C      0.20529000000000     0.85354000000000     0.11486000000000
C17    C      0.79471000000000     0.35354000000000     0.38514000000000
C17    C      0.79471000000000     0.14646000000000     0.88514000000000
C17    C      0.20529000000000     0.64646000000000     0.61486000000000
C18    C      0.11341000000000     0.17076000000000     0.04124000000000
C18    C      0.88659000000000     0.67076000000000     0.45876000000000
C18    C      0.88659000000000     0.82924000000000     0.95876000000000
C18    C      0.11341000000000     0.32924000000000     0.54124000000000
C19    C      0.31753000000000     0.10545000000000     0.05233000000000
C19    C      0.68247000000000     0.60545000000000     0.44767000000000
C19    C      0.68247000000000     0.89455000000000     0.94767000000000
C19    C      0.31753000000000     0.39455000000000     0.55233000000000
C20    C      0.31062000000000     0.91711000000000     0.09739000000000
C20    C      0.68938000000000     0.41711000000000     0.40261000000000
C20    C      0.68938000000000     0.08289000000000     0.90261000000000
C20    C      0.31062000000000     0.58289000000000     0.59739000000000
C21    C      0.10378000000000     0.98189000000000     0.08649000000000
C21    C      0.89622000000000     0.48189000000000     0.41351000000000
C21    C      0.89622000000000     0.01811000000000     0.91351000000000
C21    C      0.10378000000000     0.51811000000000     0.58649000000000
C24    C      0.20241000000000     0.65074000000000     0.16329000000000
C24    C      0.79759000000000     0.15074000000000     0.33671000000000
C24    C      0.79759000000000     0.34926000000000     0.83671000000000
C24    C      0.20241000000000     0.84926000000000     0.66329000000000
C30    C      0.98703000000000     0.92643000000000     0.10228000000000
C30    C      0.01297000000000     0.42643000000000     0.39772000000000
C30    C      0.01297000000000     0.07357000000000     0.89772000000000
C30    C      0.98703000000000     0.57357000000000     0.60228000000000
N5     N      0.70567000000000     0.64912000000000     0.22921000000000
N5     N      0.29433000000000     0.14912000000000     0.27079000000000
N5     N      0.29433000000000     0.35088000000000     0.77079000000000
N5     N      0.70567000000000     0.85088000000000     0.72921000000000
N6     N      0.77524000000000     0.43332000000000     0.15146000000000
N6     N      0.22476000000000     0.93332000000000     0.34854000000000
N6     N      0.22476000000000     0.56668000000000     0.84854000000000
N6     N      0.77524000000000     0.06668000000000     0.65146000000000
N13    N      0.89572000000000     0.67241000000000     0.21922000000000
N13    N      0.10428000000000     0.17241000000000     0.28078000000000
N13    N      0.10428000000000     0.32759000000000     0.78078000000000
N13    N      0.89572000000000     0.82759000000000     0.71922000000000
C1     C      0.57713000000000     0.40175000000000     0.15946000000000
C1     C      0.42287000000000     0.90175000000000     0.34054000000000
C1     C      0.42287000000000     0.59825000000000     0.84054000000000
C1     C      0.57713000000000     0.09825000000000     0.65946000000000
C2     C      0.78810000000000     0.58171000000000     0.19928000000000
C2     C      0.21190000000000     0.08171000000000     0.30072000000000
C2     C      0.21190000000000     0.41829000000000     0.80072000000000
C2     C      0.78810000000000     0.91829000000000     0.69928000000000
C3     C      0.66955000000000     0.34383000000000     0.13174000000000
C3     C      0.33045000000000     0.84383000000000     0.36826000000000
C3     C      0.33045000000000     0.65617000000000     0.86826000000000
C3     C      0.66955000000000     0.15617000000000     0.63174000000000
C4     C      0.60118000000000     0.55650000000000     0.20833000000000
C4     C      0.39882000000000     0.05650000000000     0.29167000000000
C4     C      0.39882000000000     0.44350000000000     0.79167000000000
C4     C      0.60118000000000     0.94350000000000     0.70833000000000
C9     C      0.65420000000000     0.17792000000000     0.07838000000000
C9     C      0.34580000000000     0.67792000000000     0.42162000000000
C9     C      0.34580000000000     0.82208000000000     0.92162000000000
C9     C      0.65420000000000     0.32208000000000     0.57838000000000
H22    H      0.38713000000000     0.81648000000000     0.11971000000000
H22    H      0.61287000000000     0.31648000000000     0.38029000000000
H22    H      0.61287000000000     0.18352000000000     0.88029000000000
H22    H      0.38713000000000     0.68352000000000     0.61971000000000
H23    H      0.22183000000000     0.38068000000000     0.98880000000000
H23    H      0.77817000000000     0.88068000000000     0.51120000000000
H23    H      0.77817000000000     0.61932000000000     0.01120000000000
H23    H      0.22183000000000     0.11932000000000     0.48880000000000
H27    H      0.29434000000000     0.41975000000000     0.21634000000000
H27    H      0.70566000000000     0.91975000000000     0.28366000000000
H27    H      0.70566000000000     0.58025000000000     0.78366000000000
H27    H      0.29434000000000     0.08025000000000     0.71634000000000
H28    H      0.03641000000000     0.27117000000000     0.01899000000000
H28    H      0.96359000000000     0.77117000000000     0.48101000000000
H28    H      0.96359000000000     0.72883000000000     0.98101000000000
H28    H      0.03641000000000     0.22883000000000     0.51899000000000
H29    H      0.39961000000000     0.15219000000000     0.03939000000000
H29    H      0.60039000000000     0.65219000000000     0.46061000000000
H29    H      0.60039000000000     0.84781000000000     0.96061000000000
H29    H      0.39961000000000     0.34781000000000     0.53939000000000
H31    H      0.96629000000000     0.66160000000000     0.10357000000000
H31    H      0.03371000000000     0.16160000000000     0.39643000000000
H31    H      0.03371000000000     0.33840000000000     0.89643000000000
H31    H      0.96629000000000     0.83840000000000     0.60357000000000
H32    H      0.92268000000000     0.05008000000000     0.07421000000000
H32    H      0.07732000000000     0.55008000000000     0.42579000000000
H32    H      0.07732000000000     0.94992000000000     0.92579000000000
H32    H      0.92268000000000     0.44992000000000     0.57421000000000
H33    H      0.98119000000000     0.02231000000000     0.14188000000000
H33    H      0.01881000000000     0.52231000000000     0.35812000000000
H33    H      0.01881000000000     0.97769000000000     0.85812000000000
H33    H      0.98119000000000     0.47769000000000     0.64188000000000
H7     H      0.49121000000000     0.32957000000000     0.14361000000000
H7     H      0.50879000000000     0.82957000000000     0.35639000000000
H7     H      0.50879000000000     0.67043000000000     0.85639000000000
H7     H      0.49121000000000     0.17043000000000     0.64361000000000
H8     H      0.53365000000000     0.60946000000000     0.23210000000000
H8     H      0.46635000000000     0.10946000000000     0.26790000000000
H8     H      0.46635000000000     0.39054000000000     0.76790000000000
H8     H      0.53365000000000     0.89054000000000     0.73210000000000
H10    H      0.73614000000000     0.15644000000000     0.06366000000000
H10    H      0.26386000000000     0.65644000000000     0.43634000000000
H10    H      0.26386000000000     0.84356000000000     0.93634000000000
H10    H      0.73614000000000     0.34356000000000     0.56366000000000
H11    H      0.59591000000000     0.32102000000000     0.04994000000000
H11    H      0.40409000000000     0.82102000000000     0.45006000000000
H11    H      0.40409000000000     0.67898000000000     0.95006000000000
H11    H      0.59591000000000     0.17898000000000     0.54994000000000
H12    H      0.61747000000000     0.92876000000000     0.08063000000000
H12    H      0.38253000000000     0.42876000000000     0.41937000000000
H12    H      0.38253000000000     0.07124000000000     0.91937000000000
H12    H      0.61747000000000     0.57124000000000     0.58063000000000
H14    H      0.90987000000000     0.78395000000000     0.25474000000000
H14    H      0.09013000000000     0.28395000000000     0.24526000000000
H14    H      0.09013000000000     0.21605000000000     0.74526000000000
H14    H      0.90987000000000     0.71605000000000     0.75474000000000
H15    H      0.96008000000000     0.62709000000000     0.19826000000000
H15    H      0.03992000000000     0.12709000000000     0.30174000000000
H15    H      0.03992000000000     0.37291000000000     0.80174000000000
H15    H      0.96008000000000     0.87291000000000     0.69826000000000
