data_default
_cell_volume           359.061696
_symmetry_space_group_name_H-M 'P 1'
_symmetry_Int_Tables_number 1
loop_
_symmetry_equiv_pos_site_id
_symmetry_equiv_pos_as_xyz
1 x,y,z
_cell_length_a         3.9900000000
_cell_length_b         8.7200000000
_cell_length_c        10.3200000000
_cell_angle_alpha        90.0000
_cell_angle_beta        90.0000
_cell_angle_gamma        90.0000
_cell_formula_units_Z 1
loop_
_atom_site_label
_atom_site_type_symbol
_atom_site_fract_x
_atom_site_fract_y
_atom_site_fract_z
H      H      0.19739000000000     0.33399000000000     0.46164000000000
H      H      0.30261000000000     0.66601000000000     0.96164000000000
H      H      0.69739000000000     0.16601000000000     0.53836000000000
H      H      0.80261000000000     0.83399000000000     0.03836000000000
C      C      0.29313000000000     0.38333000000000     0.37242000000000
C      C      0.20687000000000     0.61667000000000     0.87242000000000
C      C      0.79313000000000     0.11667000000000     0.62758000000000
C      C      0.70687000000000     0.88333000000000     0.12758000000000
C      C      0.36411000000000     0.25927000000000     0.27169000000000
C      C      0.13589000000000     0.74073000000000     0.77169000000000
C      C      0.86411000000000     0.24073000000000     0.72831000000000
C      C      0.63589000000000     0.75927000000000     0.22831000000000
C      C      0.49874000000000     0.32866000000000     0.14623000000000
C      C      0.00126000000000     0.67134000000000     0.64623000000000
C      C      0.99874000000000     0.17134000000000     0.85377000000000
C      C      0.50126000000000     0.82866000000000     0.35377000000000
H      H      0.51880000000000     0.44703000000000     0.39609000000000
H      H      0.98120000000000     0.55297000000000     0.89609000000000
H      H      0.01880000000000     0.05297000000000     0.60391000000000
H      H      0.48120000000000     0.94703000000000     0.10391000000000
H      H      0.10841000000000     0.46476000000000     0.33727000000000
H      H      0.39159000000000     0.53524000000000     0.83727000000000
H      H      0.60841000000000     0.03524000000000     0.66273000000000
H      H      0.89159000000000     0.96476000000000     0.16273000000000
H      H      0.54883000000000     0.17784000000000     0.30684000000000
H      H      0.95117000000000     0.82216000000000     0.80684000000000
H      H      0.04883000000000     0.32216000000000     0.69316000000000
H      H      0.45117000000000     0.67784000000000     0.19316000000000
H      H      0.13844000000000     0.19558000000000     0.24802000000000
H      H      0.36156000000000     0.80442000000000     0.74802000000000
H      H      0.63844000000000     0.30442000000000     0.75198000000000
H      H      0.86156000000000     0.69558000000000     0.25198000000000
H      H      0.54922000000000     0.24042000000000     0.07459000000000
H      H      0.95078000000000     0.75958000000000     0.57459000000000
H      H      0.04922000000000     0.25958000000000     0.92541000000000
H      H      0.45078000000000     0.74042000000000     0.42541000000000
H      H      0.32027000000000     0.40842000000000     0.10420000000000
H      H      0.17973000000000     0.59158000000000     0.60420000000000
H      H      0.82027000000000     0.09158000000000     0.89580000000000
H      H      0.67973000000000     0.90842000000000     0.39580000000000
H      H      0.73066000000000     0.39069000000000     0.16302000000000
H      H      0.76934000000000     0.60931000000000     0.66302000000000
H      H      0.23066000000000     0.10931000000000     0.83698000000000
H      H      0.26934000000000     0.89069000000000     0.33698000000000
