data_default
_cell_volume           364.907433
_symmetry_space_group_name_H-M 'P 1'
_symmetry_Int_Tables_number 1
loop_
_symmetry_equiv_pos_site_id
_symmetry_equiv_pos_as_xyz
1 x,y,z
_cell_length_a         4.1480000000
_cell_length_b        12.6120000000
_cell_length_c         6.9770000000
_cell_angle_alpha        90.0000
_cell_angle_beta        91.2820
_cell_angle_gamma        90.0000
_cell_formula_units_Z 1
loop_
_atom_site_label
_atom_site_type_symbol
_atom_site_fract_x
_atom_site_fract_y
_atom_site_fract_z
C      C      0.21730000000000     0.94820000000000     0.21996000000000
C      C      0.78270000000000     0.05180000000000     0.78004000000000
C      C      0.78270000000000     0.44820000000000     0.28004000000000
C      C      0.21730000000000     0.55180000000000     0.71996000000000
H      H      0.98919000000000     0.94710000000000     0.18975000000000
H      H      0.01081000000000     0.05290000000000     0.81025000000000
H      H      0.01081000000000     0.44710000000000     0.31025000000000
H      H      0.98919000000000     0.55290000000000     0.68975000000000
H      H      0.32763000000000     0.92754000000000     0.10586000000000
H      H      0.67237000000000     0.07246000000000     0.89414000000000
H      H      0.67237000000000     0.42754000000000     0.39414000000000
H      H      0.32763000000000     0.57246000000000     0.60586000000000
H      H      0.28183000000000     0.02190000000000     0.24754000000000
H      H      0.71817000000000     0.97810000000000     0.75246000000000
H      H      0.71817000000000     0.52190000000000     0.25246000000000
H      H      0.28183000000000     0.47810000000000     0.74754000000000
C      C      0.30850000000000     0.87541000000000     0.38809000000000
C      C      0.69150000000000     0.12459000000000     0.61191000000000
C      C      0.69150000000000     0.37541000000000     0.11191000000000
C      C      0.30850000000000     0.62459000000000     0.88809000000000
H      H      0.18827000000000     0.89727000000000     0.50161000000000
H      H      0.81173000000000     0.10273000000000     0.49839000000000
H      H      0.81173000000000     0.39727000000000     0.99839000000000
H      H      0.18827000000000     0.60273000000000     0.00161000000000
H      H      0.53599000000000     0.88301000000000     0.41977000000000
H      H      0.46401000000000     0.11699000000000     0.58023000000000
H      H      0.46401000000000     0.38301000000000     0.08023000000000
H      H      0.53599000000000     0.61699000000000     0.91977000000000
C      C      0.23060000000000     0.75914000000000     0.34494000000000
C      C      0.76940000000000     0.24086000000000     0.65506000000000
C      C      0.76940000000000     0.25914000000000     0.15506000000000
C      C      0.23060000000000     0.74086000000000     0.84494000000000
H      H      0.00680000000000     0.74842000000000     0.32072000000000
H      H      0.99320000000000     0.25158000000000     0.67928000000000
H      H      0.99320000000000     0.24842000000000     0.17928000000000
H      H      0.00680000000000     0.75158000000000     0.82072000000000
H      H      0.34279000000000     0.73474000000000     0.23214000000000
H      H      0.65721000000000     0.26526000000000     0.76786000000000
H      H      0.65721000000000     0.23474000000000     0.26786000000000
H      H      0.34279000000000     0.76526000000000     0.73214000000000
H      H      0.29904000000000     0.71276000000000     0.45293000000000
H      H      0.70096000000000     0.28724000000000     0.54707000000000
H      H      0.70096000000000     0.21276000000000     0.04707000000000
H      H      0.29904000000000     0.78724000000000     0.95293000000000
