data_default
_cell_volume           348.191838
_symmetry_space_group_name_H-M 'P 1'
_symmetry_Int_Tables_number 1
loop_
_symmetry_equiv_pos_site_id
_symmetry_equiv_pos_as_xyz
1 x,y,z
_cell_length_a        25.4010000000
_cell_length_b         4.0670000000
_cell_length_c        13.0660000000
_cell_angle_alpha        90.0000
_cell_angle_beta        14.9490
_cell_angle_gamma        90.0000
_cell_formula_units_Z 1
loop_
_atom_site_label
_atom_site_type_symbol
_atom_site_fract_x
_atom_site_fract_y
_atom_site_fract_z
C      C      0.23219000000000     0.26974000000000     0.27245000000000
C      C      0.76781000000000     0.73026000000000     0.72755000000000
C      C      0.76781000000000     0.76974000000000     0.22755000000000
C      C      0.23219000000000     0.23026000000000     0.77245000000000
H      H      0.11909000000000     0.19476000000000     0.54374000000000
H      H      0.88091000000000     0.80524000000000     0.45626000000000
H      H      0.88091000000000     0.69476000000000     0.95626000000000
H      H      0.11909000000000     0.30524000000000     0.04374000000000
H      H      0.26165000000000     0.53677000000000     0.22761000000000
H      H      0.73835000000000     0.46323000000000     0.77239000000000
H      H      0.73835000000000     0.03677000000000     0.27239000000000
H      H      0.26165000000000     0.96323000000000     0.72761000000000
H      H      0.37668000000000     0.13765000000000     0.01821000000000
H      H      0.62332000000000     0.86235000000000     0.98179000000000
H      H      0.62332000000000     0.63765000000000     0.48179000000000
H      H      0.37668000000000     0.36235000000000     0.51821000000000
C      C      0.15550000000000     0.19315000000000     0.30828000000000
C      C      0.84450000000000     0.80685000000000     0.69172000000000
C      C      0.84450000000000     0.69315000000000     0.19172000000000
C      C      0.15550000000000     0.30685000000000     0.80828000000000
H      H      0.01045000000000     0.32802000000000     0.56636000000000
H      H      0.98955000000000     0.67198000000000     0.43364000000000
H      H      0.98955000000000     0.82802000000000     0.93364000000000
H      H      0.01045000000000     0.17198000000000     0.06636000000000
H      H      0.11888000000000     0.92680000000000     0.37146000000000
H      H      0.88112000000000     0.07320000000000     0.62854000000000
H      H      0.88112000000000     0.42680000000000     0.12854000000000
H      H      0.11888000000000     0.57320000000000     0.87146000000000
C      C      0.31243000000000     0.28244000000000     0.93109000000000
C      C      0.68757000000000     0.71756000000000     0.06891000000000
C      C      0.68757000000000     0.78244000000000     0.56891000000000
C      C      0.31243000000000     0.21756000000000     0.43109000000000
H      H      0.25763000000000     0.21458000000000     0.95633000000000
H      H      0.74237000000000     0.78542000000000     0.04367000000000
H      H      0.74237000000000     0.71458000000000     0.54367000000000
H      H      0.25763000000000     0.28542000000000     0.45633000000000
H      H      0.45951000000000     0.15257000000000     0.66752000000000
H      H      0.54049000000000     0.84743000000000     0.33248000000000
H      H      0.54049000000000     0.65257000000000     0.83248000000000
H      H      0.45951000000000     0.34743000000000     0.16752000000000
H      H      0.34528000000000     0.55042000000000     0.86873000000000
H      H      0.65472000000000     0.44958000000000     0.13127000000000
H      H      0.65472000000000     0.05042000000000     0.63127000000000
H      H      0.34528000000000     0.94958000000000     0.36873000000000
