data_default
_cell_volume           391.373867
_symmetry_space_group_name_H-M 'P 1'
_symmetry_Int_Tables_number 1
loop_
_symmetry_equiv_pos_site_id
_symmetry_equiv_pos_as_xyz
1 x,y,z
_cell_length_a         9.6792500000
_cell_length_b        10.4497300000
_cell_length_c         4.2849400000
_cell_angle_alpha        90.0000
_cell_angle_beta        64.5587
_cell_angle_gamma        90.0000
_cell_formula_units_Z 1
loop_
_atom_site_label
_atom_site_type_symbol
_atom_site_fract_x
_atom_site_fract_y
_atom_site_fract_z
C      C      0.79235000000000     0.50196000000000     0.53442000000000
C      C      0.20765000000000     0.49804000000000     0.46558000000000
C      C      0.20765000000000     0.00196000000000     0.96558000000000
C      C      0.79235000000000     0.99804000000000     0.03442000000000
C      C      0.76142000000000     0.64367000000000     0.64390000000000
C      C      0.23858000000000     0.35633000000000     0.35610000000000
C      C      0.23858000000000     0.14367000000000     0.85610000000000
C      C      0.76142000000000     0.85633000000000     0.14390000000000
C      C      0.59748000000000     0.66738000000000     0.92371000000000
C      C      0.40252000000000     0.33262000000000     0.07629000000000
C      C      0.40252000000000     0.16738000000000     0.57629000000000
C      C      0.59748000000000     0.83262000000000     0.42371000000000
H      H      0.71210000000000     0.46815000000000     0.43561000000000
H      H      0.28790000000000     0.53185000000000     0.56439000000000
H      H      0.28790000000000     0.96815000000000     0.06439000000000
H      H      0.71210000000000     0.03185000000000     0.93561000000000
H      H      0.90826000000000     0.49159000000000     0.33124000000000
H      H      0.09174000000000     0.50841000000000     0.66876000000000
H      H      0.09174000000000     0.99159000000000     0.16876000000000
H      H      0.90826000000000     0.00841000000000     0.83124000000000
H      H      0.78107000000000     0.44266000000000     0.75367000000000
H      H      0.21893000000000     0.55734000000000     0.24633000000000
H      H      0.21893000000000     0.94266000000000     0.74633000000000
H      H      0.78107000000000     0.05734000000000     0.25367000000000
H      H      0.84319000000000     0.67472000000000     0.74181000000000
H      H      0.15681000000000     0.32528000000000     0.25819000000000
H      H      0.15681000000000     0.17472000000000     0.75819000000000
H      H      0.84319000000000     0.82528000000000     0.24181000000000
H      H      0.77974000000000     0.70148000000000     0.41718000000000
H      H      0.22026000000000     0.29852000000000     0.58282000000000
H      H      0.22026000000000     0.20148000000000     0.08282000000000
H      H      0.77974000000000     0.79852000000000     0.91718000000000
H      H      0.51380000000000     0.64175000000000     0.82662000000000
H      H      0.48620000000000     0.35825000000000     0.17338000000000
H      H      0.48620000000000     0.14175000000000     0.67338000000000
H      H      0.51380000000000     0.85825000000000     0.32662000000000
H      H      0.57567000000000     0.61077000000000     0.15391000000000
H      H      0.42433000000000     0.38923000000000     0.84609000000000
H      H      0.42433000000000     0.11077000000000     0.34609000000000
H      H      0.57567000000000     0.88923000000000     0.65391000000000
H      H      0.58315000000000     0.76830000000000     0.99551000000000
H      H      0.41685000000000     0.23170000000000     0.00449000000000
H      H      0.41685000000000     0.26830000000000     0.50449000000000
H      H      0.58315000000000     0.73170000000000     0.49551000000000
