data_default
_cell_volume           195.397383
_symmetry_space_group_name_H-M 'P 1'
_symmetry_Int_Tables_number 1
loop_
_symmetry_equiv_pos_site_id
_symmetry_equiv_pos_as_xyz
1 x,y,z
_cell_length_a         6.6997400000
_cell_length_b         8.5776600000
_cell_length_c         4.2952600000
_cell_angle_alpha        67.7587
_cell_angle_beta        60.5583
_cell_angle_gamma        88.0511
_cell_formula_units_Z 1
loop_
_atom_site_label
_atom_site_type_symbol
_atom_site_fract_x
_atom_site_fract_y
_atom_site_fract_z
C      C      0.88679000000000     0.19411000000000     0.29959000000000
C      C      0.11321000000000     0.80589000000000     0.70041000000000
C      C      0.73513000000000     0.32756000000000     0.23337000000000
C      C      0.26487000000000     0.67244000000000     0.76663000000000
C      C      0.48792000000000     0.24480000000000     0.37444000000000
C      C      0.51208000000000     0.75520000000000     0.62556000000000
H      H      0.91170000000000     0.11845000000000     0.13273000000000
H      H      0.08830000000000     0.88155000000000     0.86727000000000
H      H      0.05729000000000     0.25923000000000     0.20229000000000
H      H      0.94271000000000     0.74077000000000     0.79771000000000
H      H      0.80433000000000     0.10816000000000     0.61050000000000
H      H      0.19567000000000     0.89184000000000     0.38950000000000
H      H      0.72012000000000     0.40595000000000     0.39091000000000
H      H      0.27988000000000     0.59405000000000     0.60909000000000
H      H      0.82203000000000     0.41164000000000     0.92012000000000
H      H      0.17797000000000     0.58836000000000     0.07988000000000
H      H      0.49727000000000     0.17086000000000     0.21117000000000
H      H      0.50273000000000     0.82914000000000     0.78883000000000
H      H      0.39770000000000     0.15998000000000     0.68689000000000
H      H      0.60230000000000     0.84002000000000     0.31311000000000
H      H      0.38715000000000     0.34436000000000     0.32801000000000
H      H      0.61285000000000     0.65564000000000     0.67199000000000
