data_default
_cell_volume           392.787474
_symmetry_space_group_name_H-M 'P 1'
_symmetry_Int_Tables_number 1
loop_
_symmetry_equiv_pos_site_id
_symmetry_equiv_pos_as_xyz
1 x,y,z
_cell_length_a         9.9297400000
_cell_length_b         6.3875800000
_cell_length_c         6.1976200000
_cell_angle_alpha        90.0000
_cell_angle_beta        87.7280
_cell_angle_gamma        90.0000
_cell_formula_units_Z 1
loop_
_atom_site_label
_atom_site_type_symbol
_atom_site_fract_x
_atom_site_fract_y
_atom_site_fract_z
C      C      0.64077000000000     0.81485000000000     0.40044000000000
C      C      0.35923000000000     0.18515000000000     0.59956000000000
C      C      0.35923000000000     0.31485000000000     0.09956000000000
C      C      0.64077000000000     0.68515000000000     0.90044000000000
C      C      0.67556000000000     0.67898000000000     0.59642000000000
C      C      0.32444000000000     0.32102000000000     0.40358000000000
C      C      0.32444000000000     0.17898000000000     0.90358000000000
C      C      0.67556000000000     0.82102000000000     0.09642000000000
C      C      0.57562000000000     0.70830000000000     0.79119000000000
C      C      0.42438000000000     0.29170000000000     0.20881000000000
C      C      0.42438000000000     0.20830000000000     0.70881000000000
C      C      0.57562000000000     0.79170000000000     0.29119000000000
H      H      0.64394000000000     0.98056000000000     0.44253000000000
H      H      0.35606000000000     0.01944000000000     0.55747000000000
H      H      0.35606000000000     0.48056000000000     0.05747000000000
H      H      0.64394000000000     0.51944000000000     0.94253000000000
H      H      0.71381000000000     0.78629000000000     0.26775000000000
H      H      0.28619000000000     0.21371000000000     0.73225000000000
H      H      0.28619000000000     0.28629000000000     0.23225000000000
H      H      0.71381000000000     0.71371000000000     0.76775000000000
H      H      0.54049000000000     0.77623000000000     0.34638000000000
H      H      0.45951000000000     0.22377000000000     0.65362000000000
H      H      0.45951000000000     0.27623000000000     0.15362000000000
H      H      0.54049000000000     0.72377000000000     0.84638000000000
H      H      0.67543000000000     0.51448000000000     0.54841000000000
H      H      0.32457000000000     0.48552000000000     0.45159000000000
H      H      0.32457000000000     0.01448000000000     0.95159000000000
H      H      0.67543000000000     0.98552000000000     0.04841000000000
H      H      0.77695000000000     0.71873000000000     0.64525000000000
H      H      0.22305000000000     0.28127000000000     0.35475000000000
H      H      0.22305000000000     0.21873000000000     0.85475000000000
H      H      0.77695000000000     0.78127000000000     0.14525000000000
H      H      0.57419000000000     0.87103000000000     0.84460000000000
H      H      0.42581000000000     0.12897000000000     0.15540000000000
H      H      0.42581000000000     0.37103000000000     0.65540000000000
H      H      0.57419000000000     0.62897000000000     0.34460000000000
H      H      0.47421000000000     0.66321000000000     0.74825000000000
H      H      0.52579000000000     0.33679000000000     0.25175000000000
H      H      0.52579000000000     0.16321000000000     0.75175000000000
H      H      0.47421000000000     0.83679000000000     0.24825000000000
H      H      0.60598000000000     0.61003000000000     0.92462000000000
H      H      0.39402000000000     0.38997000000000     0.07538000000000
H      H      0.39402000000000     0.11003000000000     0.57538000000000
H      H      0.60598000000000     0.88997000000000     0.42462000000000
