data_default
_cell_volume           169.319999
_symmetry_space_group_name_H-M 'P 1'
_symmetry_Int_Tables_number 1
loop_
_symmetry_equiv_pos_site_id
_symmetry_equiv_pos_as_xyz
1 x,y,z
_cell_length_a         4.0513100000
_cell_length_b         6.4868000000
_cell_length_c         7.6363300000
_cell_angle_alpha        76.2770
_cell_angle_beta        82.3050
_cell_angle_gamma        60.3050
_cell_formula_units_Z 1
loop_
_atom_site_label
_atom_site_type_symbol
_atom_site_fract_x
_atom_site_fract_y
_atom_site_fract_z
C      C      0.99149100000000     0.39017900000000     0.30612400000000
C      C      0.00850900000000     0.60982100000000     0.69387600000000
H      H      0.95849400000000     0.56743700000000     0.23982900000000
H      H      0.04150600000000     0.43256300000000     0.76017100000000
H      H      0.22954900000000     0.30376600000000     0.39707500000000
H      H      0.77045100000000     0.69623400000000     0.60292500000000
H      H      0.73587000000000     0.41823700000000     0.38745600000000
H      H      0.26413000000000     0.58176300000000     0.61254400000000
C      C      0.05656900000000     0.23667600000000     0.16773500000000
C      C      0.94343100000000     0.76332400000000     0.83226500000000
H      H      0.30433500000000     0.22027300000000     0.08334300000000
H      H      0.69566500000000     0.77972700000000     0.91665700000000
H      H      0.81491100000000     0.32971100000000     0.07826400000000
H      H      0.18508900000000     0.67028900000000     0.92173600000000
C      C      0.11387700000000     0.98357400000000     0.25590900000000
C      C      0.88612300000000     0.01642600000000     0.74409100000000
H      H      0.16733500000000     0.87688300000000     0.15453800000000
H      H      0.83266500000000     0.12311700000000     0.84546200000000
H      H      0.86427700000000     0.99270700000000     0.33511500000000
H      H      0.13572300000000     0.00729300000000     0.66488500000000
H      H      0.35510300000000     0.88614200000000     0.34560000000000
H      H      0.64489700000000     0.11385800000000     0.65440000000000
