data_default
_cell_volume           404.964360
_symmetry_space_group_name_H-M 'P 1'
_symmetry_Int_Tables_number 1
loop_
_symmetry_equiv_pos_site_id
_symmetry_equiv_pos_as_xyz
1 x,y,z
_cell_length_a         6.8300000000
_cell_length_b         7.3200000000
_cell_length_c         8.1000000000
_cell_angle_alpha        90.0000
_cell_angle_beta        90.0000
_cell_angle_gamma        90.0000
_cell_formula_units_Z 1
loop_
_atom_site_label
_atom_site_type_symbol
_atom_site_fract_x
_atom_site_fract_y
_atom_site_fract_z
H      H      0.93592000000000     0.38839000000000     0.34604000000000
H      H      0.56408000000000     0.61161000000000     0.84604000000000
H      H      0.43592000000000     0.11161000000000     0.65396000000000
H      H      0.06408000000000     0.88839000000000     0.15396000000000
C      C      0.06618000000000     0.46732000000000     0.37460000000000
C      C      0.43382000000000     0.53268000000000     0.87460000000000
C      C      0.56618000000000     0.03268000000000     0.62540000000000
C      C      0.93382000000000     0.96732000000000     0.12540000000000
C      C      0.25192000000000     0.36000000000000     0.33465000000000
C      C      0.24808000000000     0.64000000000000     0.83465000000000
C      C      0.75192000000000     0.14000000000000     0.66535000000000
C      C      0.74808000000000     0.86000000000000     0.16535000000000
C      C      0.43509000000000     0.47099000000000     0.37481000000000
C      C      0.06491000000000     0.52901000000000     0.87481000000000
C      C      0.93509000000000     0.02901000000000     0.62519000000000
C      C      0.56491000000000     0.97099000000000     0.12519000000000
H      H      0.06007000000000     0.50317000000000     0.50457000000000
H      H      0.43993000000000     0.49683000000000     0.00457000000000
H      H      0.56007000000000     0.99683000000000     0.49543000000000
H      H      0.93993000000000     0.00317000000000     0.99543000000000
H      H      0.05920000000000     0.59326000000000     0.30402000000000
H      H      0.44080000000000     0.40674000000000     0.80402000000000
H      H      0.55920000000000     0.90674000000000     0.69598000000000
H      H      0.94080000000000     0.09326000000000     0.19598000000000
H      H      0.25890000000000     0.23406000000000     0.40523000000000
H      H      0.24110000000000     0.76594000000000     0.90523000000000
H      H      0.75890000000000     0.26594000000000     0.59477000000000
H      H      0.74110000000000     0.73406000000000     0.09477000000000
H      H      0.25803000000000     0.32415000000000     0.20468000000000
H      H      0.24197000000000     0.67585000000000     0.70468000000000
H      H      0.75803000000000     0.17585000000000     0.79532000000000
H      H      0.74197000000000     0.82415000000000     0.29532000000000
H      H      0.56718000000000     0.39466000000000     0.34639000000000
H      H      0.93282000000000     0.60534000000000     0.84639000000000
H      H      0.06718000000000     0.10534000000000     0.65361000000000
H      H      0.43282000000000     0.89466000000000     0.15361000000000
H      H      0.43932000000000     0.59704000000000     0.30424000000000
H      H      0.06068000000000     0.40296000000000     0.80424000000000
H      H      0.93932000000000     0.90296000000000     0.69576000000000
H      H      0.56068000000000     0.09704000000000     0.19576000000000
H      H      0.44019000000000     0.50695000000000     0.50478000000000
H      H      0.05981000000000     0.49305000000000     0.00478000000000
H      H      0.94019000000000     0.99305000000000     0.49522000000000
H      H      0.55981000000000     0.00695000000000     0.99522000000000
