data_default
_cell_volume           345.454898
_symmetry_space_group_name_H-M 'P 1'
_symmetry_Int_Tables_number 1
loop_
_symmetry_equiv_pos_site_id
_symmetry_equiv_pos_as_xyz
1 x,y,z
_cell_length_a         6.7760000000
_cell_length_b        12.5680000000
_cell_length_c         7.7970000000
_cell_angle_alpha        90.0000
_cell_angle_beta        31.3500
_cell_angle_gamma        90.0000
_cell_formula_units_Z 1
loop_
_atom_site_label
_atom_site_type_symbol
_atom_site_fract_x
_atom_site_fract_y
_atom_site_fract_z
C      C      0.99508000000000     0.05219000000000     0.28712000000000
C      C      0.00492000000000     0.94781000000000     0.71288000000000
C      C      0.00492000000000     0.55219000000000     0.21288000000000
C      C      0.99508000000000     0.44781000000000     0.78712000000000
H      H      0.04557000000000     0.96822000000000     0.21132000000000
H      H      0.95443000000000     0.03178000000000     0.78868000000000
H      H      0.95443000000000     0.46822000000000     0.28868000000000
H      H      0.04557000000000     0.53178000000000     0.71132000000000
H      H      0.75364000000000     0.05244000000000     0.55788000000000
H      H      0.24636000000000     0.94756000000000     0.44212000000000
H      H      0.24636000000000     0.55244000000000     0.94212000000000
H      H      0.75364000000000     0.44756000000000     0.05788000000000
H      H      0.25070000000000     0.07962000000000     0.16818000000000
H      H      0.74930000000000     0.92038000000000     0.83182000000000
H      H      0.74930000000000     0.57962000000000     0.33182000000000
H      H      0.25070000000000     0.42038000000000     0.66818000000000
C      C      0.91483000000000     0.12284000000000     0.19060000000000
C      C      0.08517000000000     0.87716000000000     0.80940000000000
C      C      0.08517000000000     0.62284000000000     0.30940000000000
C      C      0.91483000000000     0.37716000000000     0.69060000000000
H      H      0.65261000000000     0.09502000000000     0.31945000000000
H      H      0.34739000000000     0.90498000000000     0.68055000000000
H      H      0.34739000000000     0.59502000000000     0.18055000000000
H      H      0.65261000000000     0.40498000000000     0.81945000000000
H      H      0.15009000000000     0.11429000000000     0.92201000000000
H      H      0.84991000000000     0.88571000000000     0.07799000000000
H      H      0.84991000000000     0.61429000000000     0.57799000000000
H      H      0.15009000000000     0.38571000000000     0.42201000000000
C      C      0.87316000000000     0.24041000000000     0.27030000000000
C      C      0.12684000000000     0.75959000000000     0.72970000000000
C      C      0.12684000000000     0.74041000000000     0.22970000000000
C      C      0.87316000000000     0.25959000000000     0.77030000000000
H      H      0.83256000000000     0.29117000000000     0.18524000000000
H      H      0.16744000000000     0.70883000000000     0.81476000000000
H      H      0.16744000000000     0.79117000000000     0.31476000000000
H      H      0.83256000000000     0.20883000000000     0.68524000000000
H      H      0.12946000000000     0.27010000000000     0.14788000000000
H      H      0.87054000000000     0.72990000000000     0.85212000000000
H      H      0.87054000000000     0.77010000000000     0.35212000000000
H      H      0.12946000000000     0.22990000000000     0.64788000000000
H      H      0.62588000000000     0.25384000000000     0.53958000000000
H      H      0.37412000000000     0.74616000000000     0.46042000000000
H      H      0.37412000000000     0.75384000000000     0.96042000000000
H      H      0.62588000000000     0.24616000000000     0.03958000000000
