data_default
_cell_volume           383.961816
_symmetry_space_group_name_H-M 'P 1'
_symmetry_Int_Tables_number 1
loop_
_symmetry_equiv_pos_site_id
_symmetry_equiv_pos_as_xyz
1 x,y,z
_cell_length_a         9.1500000000
_cell_length_b        10.1360000000
_cell_length_c         4.1400000000
_cell_angle_alpha        90.0000
_cell_angle_beta        90.0000
_cell_angle_gamma        90.0000
_cell_formula_units_Z 1
loop_
_atom_site_label
_atom_site_type_symbol
_atom_site_fract_x
_atom_site_fract_y
_atom_site_fract_z
C      C      0.15888000000000     0.13167000000000     0.35968000000000
C      C      0.84112000000000     0.86833000000000     0.85968000000000
C      C      0.34112000000000     0.63167000000000     0.85968000000000
C      C      0.65888000000000     0.36833000000000     0.35968000000000
C      C      0.05263000000000     0.24217000000000     0.26743000000000
C      C      0.94737000000000     0.75783000000000     0.76743000000000
C      C      0.44737000000000     0.74217000000000     0.76743000000000
C      C      0.55263000000000     0.25783000000000     0.26743000000000
C      C      0.12953000000000     0.37103000000000     0.18540000000000
C      C      0.87047000000000     0.62897000000000     0.68540000000000
C      C      0.37047000000000     0.87103000000000     0.68540000000000
C      C      0.62953000000000     0.12897000000000     0.18540000000000
H      H      0.09804000000000     0.04287000000000     0.41522000000000
H      H      0.90196000000000     0.95713000000000     0.91522000000000
H      H      0.40196000000000     0.54287000000000     0.91522000000000
H      H      0.59804000000000     0.45713000000000     0.41522000000000
H      H      0.22167000000000     0.16119000000000     0.56933000000000
H      H      0.77833000000000     0.83881000000000     0.06933000000000
H      H      0.27833000000000     0.66119000000000     0.06933000000000
H      H      0.72167000000000     0.33881000000000     0.56933000000000
H      H      0.23232000000000     0.11254000000000     0.15995000000000
H      H      0.76768000000000     0.88746000000000     0.65995000000000
H      H      0.26768000000000     0.61254000000000     0.65995000000000
H      H      0.73232000000000     0.38746000000000     0.15995000000000
H      H      0.97942000000000     0.25942000000000     0.46861000000000
H      H      0.02058000000000     0.74058000000000     0.96861000000000
H      H      0.52058000000000     0.75942000000000     0.96861000000000
H      H      0.47942000000000     0.24058000000000     0.46861000000000
H      H      0.99008000000000     0.21075000000000     0.05909000000000
H      H      0.00992000000000     0.78925000000000     0.55909000000000
H      H      0.50992000000000     0.71075000000000     0.55909000000000
H      H      0.49008000000000     0.28925000000000     0.05909000000000
H      H      0.04912000000000     0.44509000000000     0.12240000000000
H      H      0.95088000000000     0.55491000000000     0.62240000000000
H      H      0.45088000000000     0.94509000000000     0.62240000000000
H      H      0.54912000000000     0.05491000000000     0.12240000000000
H      H      0.20252000000000     0.35568000000000     0.98292000000000
H      H      0.79748000000000     0.64432000000000     0.48292000000000
H      H      0.29748000000000     0.85568000000000     0.48292000000000
H      H      0.70252000000000     0.14432000000000     0.98292000000000
H      H      0.19186000000000     0.40433000000000     0.39230000000000
H      H      0.80814000000000     0.59567000000000     0.89230000000000
H      H      0.30814000000000     0.90433000000000     0.89230000000000
H      H      0.69186000000000     0.09567000000000     0.39230000000000
