data_default
_cell_volume          1171.304878
_symmetry_space_group_name_H-M 'P 1'
_symmetry_Int_Tables_number 1
loop_
_symmetry_equiv_pos_site_id
_symmetry_equiv_pos_as_xyz
1 x,y,z
_cell_length_a        11.4336820000
_cell_length_b         5.4611430000
_cell_length_c        19.4762310000
_cell_angle_alpha        90.0000
_cell_angle_beta       105.6020
_cell_angle_gamma        90.0000
_cell_formula_units_Z 1
loop_
_atom_site_label
_atom_site_type_symbol
_atom_site_fract_x
_atom_site_fract_y
_atom_site_fract_z
B      B      0.74396000000000     0.16789000000000     0.95458000000000
B      B      0.25604000000000     0.83211000000000     0.04542000000000
B      B      0.25604000000000     0.66789000000000     0.54542000000000
B      B      0.74396000000000     0.33211000000000     0.45458000000000
O      O      0.64230000000000     0.28755000000000     0.96568000000000
O      O      0.35770000000000     0.71245000000000     0.03432000000000
O      O      0.35770000000000     0.78755000000000     0.53432000000000
O      O      0.64230000000000     0.21245000000000     0.46568000000000
C      C      0.61522000000000     0.46894000000000     0.91434000000000
C      C      0.38478000000000     0.53106000000000     0.08566000000000
C      C      0.38478000000000     0.96894000000000     0.58566000000000
C      C      0.61522000000000     0.03106000000000     0.41434000000000
C      C      0.52252000000000     0.64056000000000     0.90186000000000
C      C      0.47748000000000     0.35944000000000     0.09814000000000
C      C      0.47748000000000     0.14056000000000     0.59814000000000
C      C      0.52252000000000     0.85944000000000     0.40186000000000
C      C      0.51630000000000     0.80421000000000     0.84565000000000
C      C      0.48370000000000     0.19579000000000     0.15435000000000
C      C      0.48370000000000     0.30421000000000     0.65435000000000
C      C      0.51630000000000     0.69579000000000     0.34565000000000
C      C      0.59948000000000     0.79417000000000     0.80441000000000
C      C      0.40052000000000     0.20583000000000     0.19559000000000
C      C      0.40052000000000     0.29417000000000     0.69559000000000
C      C      0.59948000000000     0.70583000000000     0.30441000000000
C      C      0.69275000000000     0.61983000000000     0.81750000000000
C      C      0.30725000000000     0.38017000000000     0.18250000000000
C      C      0.30725000000000     0.11983000000000     0.68250000000000
C      C      0.69275000000000     0.88017000000000     0.31750000000000
C      C      0.69790000000000     0.45894000000000     0.87324000000000
C      C      0.30210000000000     0.54106000000000     0.12676000000000
C      C      0.30210000000000     0.95894000000000     0.62676000000000
C      C      0.69790000000000     0.04106000000000     0.37324000000000
O      O      0.77953000000000     0.27084000000000     0.89762000000000
O      O      0.22047000000000     0.72916000000000     0.10238000000000
O      O      0.22047000000000     0.77084000000000     0.60238000000000
O      O      0.77953000000000     0.22916000000000     0.39762000000000
C      C      0.80788000000000     0.94982000000000     0.99910000000000
C      C      0.19212000000000     0.05018000000000     0.00090000000000
C      C      0.19212000000000     0.44982000000000     0.50090000000000
C      C      0.80788000000000     0.55018000000000     0.49910000000000
C      C      0.76901000000000     0.86123000000000     0.05401000000000
C      C      0.23099000000000     0.13877000000000     0.94599000000000
C      C      0.23099000000000     0.36123000000000     0.44599000000000
C      C      0.76901000000000     0.63877000000000     0.55401000000000
C      C      0.82144000000000     0.65585000000000     0.10060000000000
C      C      0.17856000000000     0.34415000000000     0.89940000000000
C      C      0.17856000000000     0.15585000000000     0.39940000000000
C      C      0.82144000000000     0.84415000000000     0.60060000000000
C      C      0.92243000000000     0.52353000000000     0.09252000000000
C      C      0.07757000000000     0.47647000000000     0.90748000000000
C      C      0.07757000000000     0.02353000000000     0.40748000000000
C      C      0.92243000000000     0.97647000000000     0.59252000000000
C      C      0.96832000000000     0.32719000000000     0.13729000000000
C      C      0.03168000000000     0.67281000000000     0.86271000000000
C      C      0.03168000000000     0.82719000000000     0.36271000000000
C      C      0.96832000000000     0.17281000000000     0.63729000000000
C      C      0.91385000000000     0.25794000000000     0.19062000000000
C      C      0.08615000000000     0.74206000000000     0.80938000000000
C      C      0.08615000000000     0.75794000000000     0.30938000000000
C      C      0.91385000000000     0.24206000000000     0.69062000000000
C      C      0.81271000000000     0.38607000000000     0.19853000000000
C      C      0.18729000000000     0.61393000000000     0.80147000000000
C      C      0.18729000000000     0.88607000000000     0.30147000000000
C      C      0.81271000000000     0.11393000000000     0.69853000000000
C      C      0.76615000000000     0.58161000000000     0.15342000000000
C      C      0.23385000000000     0.41839000000000     0.84658000000000
C      C      0.23385000000000     0.08161000000000     0.34658000000000
C      C      0.76615000000000     0.91839000000000     0.65342000000000
H      H      0.45894000000000     0.64642000000000     0.93422000000000
H      H      0.54106000000000     0.35358000000000     0.06578000000000
H      H      0.54106000000000     0.14642000000000     0.56578000000000
H      H      0.45894000000000     0.85358000000000     0.43422000000000
H      H      0.44552000000000     0.94171000000000     0.83381000000000
H      H      0.55448000000000     0.05829000000000     0.16619000000000
H      H      0.55448000000000     0.44171000000000     0.66619000000000
H      H      0.44552000000000     0.55829000000000     0.33381000000000
H      H      0.59155000000000     0.92408000000000     0.76148000000000
H      H      0.40845000000000     0.07592000000000     0.23852000000000
H      H      0.40845000000000     0.42408000000000     0.73852000000000
H      H      0.59155000000000     0.57592000000000     0.26148000000000
H      H      0.75750000000000     0.61004000000000     0.78605000000000
H      H      0.24250000000000     0.38996000000000     0.21395000000000
H      H      0.24250000000000     0.11004000000000     0.71395000000000
H      H      0.75750000000000     0.88996000000000     0.28605000000000
H      H      0.88707000000000     0.86942000000000     0.98741000000000
H      H      0.11293000000000     0.13058000000000     0.01259000000000
H      H      0.11293000000000     0.36942000000000     0.51259000000000
H      H      0.88707000000000     0.63058000000000     0.48741000000000
H      H      0.68968000000000     0.94589000000000     0.06480000000000
H      H      0.31032000000000     0.05411000000000     0.93520000000000
H      H      0.31032000000000     0.44589000000000     0.43520000000000
H      H      0.68968000000000     0.55411000000000     0.56480000000000
H      H      0.96602000000000     0.57707000000000     0.05187000000000
H      H      0.03398000000000     0.42293000000000     0.94813000000000
H      H      0.03398000000000     0.07707000000000     0.44813000000000
H      H      0.96602000000000     0.92293000000000     0.55187000000000
H      H      0.04635000000000     0.22751000000000     0.13067000000000
H      H      0.95365000000000     0.77249000000000     0.86933000000000
H      H      0.95365000000000     0.72751000000000     0.36933000000000
H      H      0.04635000000000     0.27249000000000     0.63067000000000
H      H      0.95003000000000     0.10554000000000     0.22541000000000
H      H      0.04997000000000     0.89446000000000     0.77459000000000
H      H      0.04997000000000     0.60554000000000     0.27459000000000
H      H      0.95003000000000     0.39446000000000     0.72541000000000
H      H      0.77038000000000     0.33427000000000     0.23986000000000
H      H      0.22962000000000     0.66573000000000     0.76014000000000
H      H      0.22962000000000     0.83427000000000     0.26014000000000
H      H      0.77038000000000     0.16573000000000     0.73986000000000
H      H      0.68772000000000     0.68091000000000     0.15972000000000
H      H      0.31228000000000     0.31909000000000     0.84028000000000
H      H      0.31228000000000     0.18091000000000     0.34028000000000
H      H      0.68772000000000     0.81909000000000     0.65972000000000
