data_default
_cell_volume          1151.079649
_symmetry_space_group_name_H-M 'P 1'
_symmetry_Int_Tables_number 1
loop_
_symmetry_equiv_pos_site_id
_symmetry_equiv_pos_as_xyz
1 x,y,z
_cell_length_a         8.3540000000
_cell_length_b         5.4260000000
_cell_length_c        25.3940000000
_cell_angle_alpha        90.0000
_cell_angle_beta        90.0000
_cell_angle_gamma        90.0000
_cell_formula_units_Z 1
loop_
_atom_site_label
_atom_site_type_symbol
_atom_site_fract_x
_atom_site_fract_y
_atom_site_fract_z
C      C      0.86460000000000     0.45170000000000     0.86643000000000
C      C      0.13540000000000     0.54830000000000     0.36643000000000
C      C      0.63540000000000     0.45170000000000     0.36643000000000
C      C      0.36460000000000     0.54830000000000     0.86643000000000
C      C      0.92159000000000     0.30156000000000     0.82894000000000
C      C      0.07841000000000     0.69844000000000     0.32894000000000
C      C      0.57841000000000     0.30156000000000     0.32894000000000
C      C      0.42159000000000     0.69844000000000     0.82894000000000
C      C      0.00659000000000     0.09988000000000     0.84164000000000
C      C      0.99341000000000     0.90012000000000     0.34164000000000
C      C      0.49341000000000     0.09988000000000     0.34164000000000
C      C      0.50659000000000     0.90012000000000     0.84164000000000
C      C      0.03459000000000     0.04487000000000     0.89226000000000
C      C      0.96541000000000     0.95513000000000     0.39226000000000
C      C      0.46541000000000     0.04487000000000     0.39226000000000
C      C      0.53459000000000     0.95513000000000     0.89226000000000
C      C      0.89392000000000     0.39520000000000     0.91674000000000
C      C      0.10608000000000     0.60480000000000     0.41674000000000
C      C      0.60608000000000     0.39520000000000     0.41674000000000
C      C      0.39392000000000     0.60480000000000     0.91674000000000
C      C      0.97652000000000     0.19432000000000     0.92937000000000
C      C      0.02348000000000     0.80568000000000     0.42937000000000
C      C      0.52348000000000     0.19432000000000     0.42937000000000
C      C      0.47652000000000     0.80568000000000     0.92937000000000
O      O      0.99055000000000     0.17334000000000     0.98229000000000
O      O      0.00945000000000     0.82666000000000     0.48229000000000
O      O      0.50945000000000     0.17334000000000     0.48229000000000
O      O      0.49055000000000     0.82666000000000     0.98229000000000
O      O      0.84924000000000     0.51702000000000     0.96070000000000
O      O      0.15076000000000     0.48298000000000     0.46070000000000
O      O      0.65076000000000     0.51702000000000     0.46070000000000
O      O      0.34924000000000     0.48298000000000     0.96070000000000
B      B      0.91423000000000     0.38110000000000     0.00132000000000
B      B      0.08577000000000     0.61890000000000     0.50132000000000
B      B      0.58577000000000     0.38110000000000     0.50132000000000
B      B      0.41423000000000     0.61890000000000     0.00132000000000
C      C      0.89139000000000     0.43590000000000     0.06089000000000
C      C      0.10861000000000     0.56410000000000     0.56089000000000
C      C      0.60861000000000     0.43590000000000     0.56089000000000
C      C      0.39139000000000     0.56410000000000     0.06089000000000
C      C      0.81494000000000     0.63766000000000     0.07814000000000
C      C      0.18506000000000     0.36234000000000     0.57814000000000
C      C      0.68506000000000     0.63766000000000     0.57814000000000
C      C      0.31494000000000     0.36234000000000     0.07814000000000
C      C      0.78645000000000     0.69632000000000     0.12894000000000
C      C      0.21355000000000     0.30368000000000     0.62894000000000
C      C      0.71355000000000     0.69632000000000     0.62894000000000
C      C      0.28645000000000     0.30368000000000     0.12894000000000
C      C      0.70524000000000     0.90403000000000     0.14038000000000
C      C      0.29476000000000     0.09597000000000     0.64038000000000
C      C      0.79476000000000     0.90403000000000     0.64038000000000
C      C      0.20524000000000     0.09597000000000     0.14038000000000
C      C      0.67205000000000     0.96606000000000     0.19030000000000
C      C      0.32795000000000     0.03394000000000     0.69030000000000
C      C      0.82795000000000     0.96606000000000     0.69030000000000
C      C      0.17205000000000     0.03394000000000     0.19030000000000
C      C      0.72214000000000     0.82386000000000     0.23002000000000
C      C      0.27786000000000     0.17614000000000     0.73002000000000
C      C      0.77786000000000     0.82386000000000     0.73002000000000
C      C      0.22214000000000     0.17614000000000     0.23002000000000
C      C      0.80490000000000     0.61855000000000     0.21974000000000
C      C      0.19510000000000     0.38145000000000     0.71974000000000
C      C      0.69510000000000     0.61855000000000     0.71974000000000
C      C      0.30490000000000     0.38145000000000     0.21974000000000
C      C      0.83616000000000     0.55641000000000     0.16978000000000
C      C      0.16384000000000     0.44359000000000     0.66978000000000
C      C      0.66384000000000     0.55641000000000     0.66978000000000
C      C      0.33616000000000     0.44359000000000     0.16978000000000
H      H      0.79544000000000     0.61822000000000     0.85629000000000
H      H      0.20456000000000     0.38178000000000     0.35629000000000
H      H      0.70456000000000     0.61822000000000     0.35629000000000
H      H      0.29544000000000     0.38178000000000     0.85629000000000
H      H      0.89936000000000     0.34499000000000     0.78712000000000
H      H      0.10064000000000     0.65501000000000     0.28712000000000
H      H      0.60064000000000     0.34499000000000     0.28712000000000
H      H      0.39936000000000     0.65501000000000     0.78712000000000
H      H      0.05369000000000     0.97853000000000     0.81038000000000
H      H      0.94631000000000     0.02147000000000     0.31038000000000
H      H      0.44631000000000     0.97853000000000     0.31038000000000
H      H      0.55369000000000     0.02147000000000     0.81038000000000
H      H      0.10413000000000     0.87959000000000     0.90288000000000
H      H      0.89587000000000     0.12041000000000     0.40288000000000
H      H      0.39587000000000     0.87959000000000     0.40288000000000
H      H      0.60413000000000     0.12041000000000     0.90288000000000
H      H      0.94200000000000     0.30145000000000     0.08868000000000
H      H      0.05800000000000     0.69855000000000     0.58868000000000
H      H      0.55800000000000     0.30145000000000     0.58868000000000
H      H      0.44200000000000     0.69855000000000     0.08868000000000
H      H      0.76985000000000     0.76424000000000     0.04757000000000
H      H      0.23015000000000     0.23576000000000     0.54757000000000
H      H      0.73015000000000     0.76424000000000     0.54757000000000
H      H      0.26985000000000     0.23576000000000     0.04757000000000
H      H      0.66283000000000     0.02659000000000     0.10858000000000
H      H      0.33717000000000     0.97341000000000     0.60858000000000
H      H      0.83717000000000     0.02659000000000     0.60858000000000
H      H      0.16283000000000     0.97341000000000     0.10858000000000
H      H      0.60430000000000     0.13597000000000     0.19863000000000
H      H      0.39570000000000     0.86403000000000     0.69863000000000
H      H      0.89570000000000     0.13597000000000     0.69863000000000
H      H      0.10430000000000     0.86403000000000     0.19863000000000
H      H      0.69609000000000     0.87596000000000     0.27114000000000
H      H      0.30391000000000     0.12404000000000     0.77114000000000
H      H      0.80391000000000     0.87596000000000     0.77114000000000
H      H      0.19609000000000     0.12404000000000     0.27114000000000
H      H      0.84722000000000     0.50065000000000     0.25232000000000
H      H      0.15278000000000     0.49935000000000     0.75232000000000
H      H      0.65278000000000     0.50065000000000     0.75232000000000
H      H      0.34722000000000     0.49935000000000     0.25232000000000
H      H      0.90430000000000     0.38553000000000     0.16345000000000
H      H      0.09570000000000     0.61447000000000     0.66345000000000
H      H      0.59570000000000     0.38553000000000     0.66345000000000
H      H      0.40430000000000     0.61447000000000     0.16345000000000
