data_default
_cell_volume          1163.466690
_symmetry_space_group_name_H-M 'P 1'
_symmetry_Int_Tables_number 1
loop_
_symmetry_equiv_pos_site_id
_symmetry_equiv_pos_as_xyz
1 x,y,z
_cell_length_a         9.5703700000
_cell_length_b         5.6528530000
_cell_length_c        28.3517030000
_cell_angle_alpha        90.0000
_cell_angle_beta        49.3356
_cell_angle_gamma        90.0000
_cell_formula_units_Z 1
loop_
_atom_site_label
_atom_site_type_symbol
_atom_site_fract_x
_atom_site_fract_y
_atom_site_fract_z
B      B      0.77315600000000     0.02416900000000     0.95999100000000
B      B      0.22684400000000     0.97583100000000     0.04000900000000
B      B      0.22684400000000     0.52416900000000     0.54000900000000
B      B      0.77315600000000     0.47583100000000     0.45999100000000
O      O      0.68321500000000     0.81099500000000     0.96958300000000
O      O      0.31678500000000     0.18900500000000     0.03041700000000
O      O      0.31678500000000     0.31099500000000     0.53041700000000
O      O      0.68321500000000     0.68900500000000     0.46958300000000
C      C      0.69466200000000     0.78859100000000     0.91863800000000
C      C      0.30533800000000     0.21140900000000     0.08136200000000
C      C      0.30533800000000     0.28859100000000     0.58136200000000
C      C      0.69466200000000     0.71140900000000     0.41863800000000
C      C      0.62729800000000     0.60850400000000     0.90509300000000
C      C      0.37270200000000     0.39149600000000     0.09490700000000
C      C      0.37270200000000     0.10850400000000     0.59490700000000
C      C      0.62729800000000     0.89149600000000     0.40509300000000
C      C      0.65881200000000     0.63141000000000     0.84968200000000
C      C      0.34118800000000     0.36859000000000     0.15031800000000
C      C      0.34118800000000     0.13141000000000     0.65031800000000
C      C      0.65881200000000     0.86859000000000     0.34968200000000
C      C      0.75348800000000     0.82627300000000     0.81015600000000
C      C      0.24651200000000     0.17372700000000     0.18984400000000
C      C      0.24651200000000     0.32627300000000     0.68984400000000
C      C      0.75348800000000     0.67372700000000     0.31015600000000
C      C      0.82103600000000     0.00704100000000     0.82429500000000
C      C      0.17896400000000     0.99295900000000     0.17570500000000
C      C      0.17896400000000     0.50704100000000     0.67570500000000
C      C      0.82103600000000     0.49295900000000     0.32429500000000
C      C      0.78895800000000     0.98235000000000     0.87933800000000
C      C      0.21104200000000     0.01765000000000     0.12066200000000
C      C      0.21104200000000     0.48235000000000     0.62066200000000
C      C      0.78895800000000     0.51765000000000     0.37933800000000
O      O      0.83958100000000     0.13229300000000     0.90442500000000
O      O      0.16041900000000     0.86770700000000     0.09557500000000
O      O      0.16041900000000     0.63229300000000     0.59557500000000
O      O      0.83958100000000     0.36770700000000     0.40442500000000
C      C      0.79650400000000     0.12561800000000     0.00479700000000
C      C      0.20349600000000     0.87438200000000     0.99520300000000
C      C      0.20349600000000     0.62561800000000     0.49520300000000
C      C      0.79650400000000     0.37438200000000     0.50479700000000
C      C      0.72676500000000     0.01186300000000     0.05816600000000
C      C      0.27323500000000     0.98813700000000     0.94183400000000
C      C      0.27323500000000     0.51186300000000     0.44183400000000
C      C      0.72676500000000     0.48813700000000     0.55816600000000
C      C      0.73898900000000     0.08879300000000     0.10480500000000
C      C      0.26101100000000     0.91120700000000     0.89519500000000
C      C      0.26101100000000     0.58879300000000     0.39519500000000
C      C      0.73898900000000     0.41120700000000     0.60480500000000
C      C      0.82882200000000     0.29870600000000     0.09845000000000
C      C      0.17117800000000     0.70129400000000     0.90155000000000
C      C      0.17117800000000     0.79870600000000     0.40155000000000
C      C      0.82882200000000     0.20129400000000     0.59845000000000
C      C      0.83958000000000     0.36342200000000     0.14338300000000
C      C      0.16042000000000     0.63657800000000     0.85661700000000
C      C      0.16042000000000     0.86342200000000     0.35661700000000
C      C      0.83958000000000     0.13657800000000     0.64338300000000
C      C      0.76231900000000     0.21935300000000     0.19522400000000
C      C      0.23768100000000     0.78064700000000     0.80477600000000
C      C      0.23768100000000     0.71935300000000     0.30477600000000
C      C      0.76231900000000     0.28064700000000     0.69522400000000
C      C      0.67469300000000     0.00917900000000     0.20163000000000
C      C      0.32530700000000     0.99082100000000     0.79837000000000
C      C      0.32530700000000     0.50917900000000     0.29837000000000
C      C      0.67469300000000     0.49082100000000     0.70163000000000
C      C      0.66499600000000     0.94344100000000     0.15647800000000
C      C      0.33500400000000     0.05655900000000     0.84352200000000
C      C      0.33500400000000     0.44344100000000     0.34352200000000
C      C      0.66499600000000     0.55655900000000     0.65647800000000
H      H      0.55425700000000     0.45910600000000     0.93597900000000
H      H      0.44574300000000     0.54089400000000     0.06402100000000
H      H      0.44574300000000     0.95910600000000     0.56402100000000
H      H      0.55425700000000     0.04089400000000     0.43597900000000
H      H      0.60888900000000     0.49542600000000     0.83704500000000
H      H      0.39111100000000     0.50457400000000     0.16295500000000
H      H      0.39111100000000     0.99542600000000     0.66295500000000
H      H      0.60888900000000     0.00457400000000     0.33704500000000
H      H      0.77497700000000     0.83726900000000     0.76770100000000
H      H      0.22502300000000     0.16273100000000     0.23229900000000
H      H      0.22502300000000     0.33726900000000     0.73229900000000
H      H      0.77497700000000     0.66273100000000     0.26770100000000
H      H      0.89425300000000     0.15830000000000     0.79429700000000
H      H      0.10574700000000     0.84170000000000     0.20570300000000
H      H      0.10574700000000     0.65830000000000     0.70570300000000
H      H      0.89425300000000     0.34170000000000     0.29429700000000
H      H      0.86622800000000     0.29351500000000     0.99424900000000
H      H      0.13377200000000     0.70648500000000     0.00575100000000
H      H      0.13377200000000     0.79351500000000     0.50575100000000
H      H      0.86622800000000     0.20648500000000     0.49424900000000
H      H      0.65685600000000     0.84416700000000     0.06781300000000
H      H      0.34314400000000     0.15583300000000     0.93218700000000
H      H      0.34314400000000     0.34416700000000     0.43218700000000
H      H      0.65685600000000     0.65583300000000     0.56781300000000
H      H      0.88761000000000     0.41275800000000     0.05878300000000
H      H      0.11239000000000     0.58724200000000     0.94121700000000
H      H      0.11239000000000     0.91275800000000     0.44121700000000
H      H      0.88761000000000     0.08724200000000     0.55878300000000
H      H      0.90861600000000     0.52594300000000     0.13800900000000
H      H      0.09138400000000     0.47405700000000     0.86199100000000
H      H      0.09138400000000     0.02594300000000     0.36199100000000
H      H      0.90861600000000     0.97405700000000     0.63800900000000
H      H      0.77062900000000     0.27055900000000     0.23015700000000
H      H      0.22937100000000     0.72944100000000     0.76984300000000
H      H      0.22937100000000     0.77055900000000     0.26984300000000
H      H      0.77062900000000     0.22944100000000     0.73015700000000
H      H      0.61378000000000     0.89719000000000     0.24183600000000
H      H      0.38622000000000     0.10281000000000     0.75816400000000
H      H      0.38622000000000     0.39719000000000     0.25816400000000
H      H      0.61378000000000     0.60281000000000     0.74183600000000
H      H      0.59692600000000     0.78024900000000     0.16152300000000
H      H      0.40307400000000     0.21975100000000     0.83847700000000
H      H      0.40307400000000     0.28024900000000     0.33847700000000
H      H      0.59692600000000     0.71975100000000     0.66152300000000
