data_default
_cell_volume          1140.504640
_symmetry_space_group_name_H-M 'P 1'
_symmetry_Int_Tables_number 1
loop_
_symmetry_equiv_pos_site_id
_symmetry_equiv_pos_as_xyz
1 x,y,z
_cell_length_a         6.8090000000
_cell_length_b        17.3270000000
_cell_length_c         9.6670000000
_cell_angle_alpha        90.0000
_cell_angle_beta        90.1440
_cell_angle_gamma        90.0000
_cell_formula_units_Z 1
loop_
_atom_site_label
_atom_site_type_symbol
_atom_site_fract_x
_atom_site_fract_y
_atom_site_fract_z
C      C      0.27157000000000     0.35427000000000     0.12507000000000
C      C      0.72843000000000     0.64573000000000     0.87493000000000
C      C      0.72843000000000     0.85427000000000     0.37493000000000
C      C      0.27157000000000     0.14573000000000     0.62507000000000
C      C      0.13678000000000     0.30822000000000     0.18419000000000
C      C      0.86322000000000     0.69178000000000     0.81581000000000
C      C      0.86322000000000     0.80822000000000     0.31581000000000
C      C      0.13678000000000     0.19178000000000     0.68419000000000
C      C      0.12412000000000     0.30261000000000     0.32269000000000
C      C      0.87588000000000     0.69739000000000     0.67731000000000
C      C      0.87588000000000     0.80261000000000     0.17731000000000
C      C      0.12412000000000     0.19739000000000     0.82269000000000
C      C      0.24676000000000     0.34295000000000     0.40413000000000
C      C      0.75324000000000     0.65705000000000     0.59587000000000
C      C      0.75324000000000     0.84295000000000     0.09587000000000
C      C      0.24676000000000     0.15705000000000     0.90413000000000
C      C      0.39122000000000     0.39459000000000     0.20702000000000
C      C      0.60878000000000     0.60541000000000     0.79298000000000
C      C      0.60878000000000     0.89459000000000     0.29298000000000
C      C      0.39122000000000     0.10541000000000     0.70702000000000
C      C      0.37880000000000     0.38838000000000     0.34349000000000
C      C      0.62120000000000     0.61162000000000     0.65651000000000
C      C      0.62120000000000     0.88838000000000     0.15651000000000
C      C      0.37880000000000     0.11162000000000     0.84349000000000
O      O      0.51498000000000     0.43246000000000     0.40600000000000
O      O      0.48502000000000     0.56754000000000     0.59400000000000
O      O      0.48502000000000     0.93246000000000     0.09400000000000
O      O      0.51498000000000     0.06754000000000     0.90600000000000
O      O      0.53764000000000     0.44323000000000     0.17251000000000
O      O      0.46236000000000     0.55677000000000     0.82749000000000
O      O      0.46236000000000     0.94323000000000     0.32749000000000
O      O      0.53764000000000     0.05677000000000     0.67251000000000
B      B      0.61422000000000     0.46746000000000     0.29811000000000
B      B      0.38578000000000     0.53254000000000     0.70189000000000
B      B      0.38578000000000     0.96746000000000     0.20189000000000
B      B      0.61422000000000     0.03254000000000     0.79811000000000
C      C      0.80247000000000     0.51724000000000     0.31810000000000
C      C      0.19753000000000     0.48276000000000     0.68190000000000
C      C      0.19753000000000     0.01724000000000     0.18190000000000
C      C      0.80247000000000     0.98276000000000     0.81810000000000
C      C      0.90261000000000     0.54527000000000     0.21005000000000
C      C      0.09739000000000     0.45473000000000     0.78995000000000
C      C      0.09739000000000     0.04527000000000     0.28995000000000
C      C      0.90261000000000     0.95473000000000     0.71005000000000
C      C      0.06387000000000     0.59045000000000     0.21598000000000
C      C      0.93613000000000     0.40955000000000     0.78402000000000
C      C      0.93613000000000     0.09045000000000     0.28402000000000
C      C      0.06387000000000     0.90955000000000     0.71598000000000
C      C      0.14747000000000     0.61428000000000     0.09708000000000
C      C      0.85253000000000     0.38572000000000     0.90292000000000
C      C      0.85253000000000     0.11428000000000     0.40292000000000
C      C      0.14747000000000     0.88572000000000     0.59708000000000
C      C      0.30395000000000     0.66114000000000     0.09703000000000
C      C      0.69605000000000     0.33886000000000     0.90297000000000
C      C      0.69605000000000     0.16114000000000     0.40297000000000
C      C      0.30395000000000     0.83886000000000     0.59703000000000
C      C      0.38194000000000     0.68468000000000     0.21676000000000
C      C      0.61806000000000     0.31532000000000     0.78324000000000
C      C      0.61806000000000     0.18468000000000     0.28324000000000
C      C      0.38194000000000     0.81532000000000     0.71676000000000
C      C      0.30335000000000     0.66139000000000     0.33626000000000
C      C      0.69665000000000     0.33861000000000     0.66374000000000
C      C      0.69665000000000     0.16139000000000     0.16374000000000
C      C      0.30335000000000     0.83861000000000     0.83626000000000
C      C      0.14619000000000     0.61465000000000     0.33550000000000
C      C      0.85381000000000     0.38535000000000     0.66450000000000
C      C      0.85381000000000     0.11465000000000     0.16450000000000
C      C      0.14619000000000     0.88535000000000     0.83550000000000
H      H      0.28343000000000     0.35823000000000     0.01148000000000
H      H      0.71657000000000     0.64177000000000     0.98852000000000
H      H      0.71657000000000     0.85823000000000     0.48852000000000
H      H      0.28343000000000     0.14177000000000     0.51148000000000
H      H      0.03521000000000     0.27443000000000     0.11880000000000
H      H      0.96479000000000     0.72557000000000     0.88120000000000
H      H      0.96479000000000     0.77443000000000     0.38120000000000
H      H      0.03521000000000     0.22557000000000     0.61880000000000
H      H      0.01266000000000     0.26454000000000     0.36926000000000
H      H      0.98734000000000     0.73546000000000     0.63074000000000
H      H      0.98734000000000     0.76454000000000     0.13074000000000
H      H      0.01266000000000     0.23546000000000     0.86926000000000
H      H      0.23935000000000     0.33814000000000     0.51788000000000
H      H      0.76065000000000     0.66186000000000     0.48212000000000
H      H      0.76065000000000     0.83814000000000     0.98212000000000
H      H      0.23935000000000     0.16186000000000     0.01788000000000
H      H      0.84979000000000     0.52845000000000     0.42511000000000
H      H      0.15021000000000     0.47155000000000     0.57489000000000
H      H      0.15021000000000     0.02845000000000     0.07489000000000
H      H      0.84979000000000     0.97155000000000     0.92511000000000
H      H      0.84488000000000     0.53014000000000     0.10683000000000
H      H      0.15512000000000     0.46986000000000     0.89317000000000
H      H      0.15512000000000     0.03014000000000     0.39317000000000
H      H      0.84488000000000     0.96986000000000     0.60683000000000
H      H      0.08580000000000     0.59643000000000     0.99638000000000
H      H      0.91420000000000     0.40357000000000     0.00362000000000
H      H      0.91420000000000     0.09643000000000     0.50362000000000
H      H      0.08580000000000     0.90357000000000     0.49638000000000
H      H      0.36705000000000     0.68099000000000     0.99833000000000
H      H      0.63295000000000     0.31901000000000     0.00167000000000
H      H      0.63295000000000     0.18099000000000     0.50167000000000
H      H      0.36705000000000     0.81901000000000     0.49833000000000
H      H      0.51068000000000     0.72331000000000     0.21708000000000
H      H      0.48932000000000     0.27669000000000     0.78292000000000
H      H      0.48932000000000     0.22331000000000     0.28292000000000
H      H      0.51068000000000     0.77669000000000     0.71708000000000
H      H      0.36654000000000     0.68130000000000     0.43515000000000
H      H      0.63346000000000     0.31870000000000     0.56485000000000
H      H      0.63346000000000     0.18130000000000     0.06485000000000
H      H      0.36654000000000     0.81870000000000     0.93515000000000
H      H      0.08558000000000     0.59772000000000     0.43653000000000
H      H      0.91442000000000     0.40228000000000     0.56347000000000
H      H      0.91442000000000     0.09772000000000     0.06347000000000
H      H      0.08558000000000     0.90228000000000     0.93653000000000
