data_default
_cell_volume           530.269370
_symmetry_space_group_name_H-M 'P 1'
_symmetry_Int_Tables_number 1
loop_
_symmetry_equiv_pos_site_id
_symmetry_equiv_pos_as_xyz
1 x,y,z
_cell_length_a         6.2941000000
_cell_length_b         8.9693000000
_cell_length_c         9.9450000000
_cell_angle_alpha       100.7650
_cell_angle_beta       103.9370
_cell_angle_gamma        94.9110
_cell_formula_units_Z 1
loop_
_atom_site_label
_atom_site_type_symbol
_atom_site_fract_x
_atom_site_fract_y
_atom_site_fract_z
C      C      0.61391000000000     0.27432000000000     0.97732000000000
C      C      0.38609000000000     0.72568000000000     0.02268000000000
C      C      0.76005000000000     0.17051000000000     0.96036000000000
C      C      0.23995000000000     0.82949000000000     0.03964000000000
C      C      0.68514000000000     0.02752000000000     0.87304000000000
C      C      0.31486000000000     0.97248000000000     0.12696000000000
C      C      0.46412000000000     0.98836000000000     0.80267000000000
C      C      0.53588000000000     0.01164000000000     0.19733000000000
C      C      0.31795000000000     0.09217000000000     0.81961000000000
C      C      0.68205000000000     0.90783000000000     0.18039000000000
C      C      0.39286000000000     0.23514000000000     0.90694000000000
C      C      0.60714000000000     0.76486000000000     0.09306000000000
O      O      0.34957000000000     0.85393000000000     0.71035000000000
O      O      0.65043000000000     0.14607000000000     0.28965000000000
B      B      0.13149000000000     0.88029000000000     0.67274000000000
B      B      0.86851000000000     0.11971000000000     0.32726000000000
O      O      0.10701000000000     0.02622000000000     0.73851000000000
O      O      0.89299000000000     0.97378000000000     0.26149000000000
C      C      0.93933000000000     0.76200000000000     0.57036000000000
C      C      0.06067000000000     0.23800000000000     0.42964000000000
C      C      0.73700000000000     0.79671000000000     0.51350000000000
C      C      0.26300000000000     0.20329000000000     0.48650000000000
C      C      0.54838000000000     0.69081000000000     0.41624000000000
C      C      0.45162000000000     0.30919000000000     0.58376000000000
C      C      0.57040000000000     0.54460000000000     0.35242000000000
C      C      0.42960000000000     0.45540000000000     0.64758000000000
C      C      0.38855000000000     0.44902000000000     0.26175000000000
C      C      0.61145000000000     0.55098000000000     0.73825000000000
C      C      0.18466000000000     0.49965000000000     0.23488000000000
C      C      0.81534000000000     0.50035000000000     0.76512000000000
C      C      0.16265000000000     0.64585000000000     0.29870000000000
C      C      0.83735000000000     0.35415000000000     0.70130000000000
C      C      0.34451000000000     0.74144000000000     0.38937000000000
C      C      0.65549000000000     0.25856000000000     0.61063000000000
H      H      0.67035000000000     0.38206000000000     0.04314000000000
H      H      0.32965000000000     0.61794000000000     0.95686000000000
H      H      0.92666000000000     0.20003000000000     0.01340000000000
H      H      0.07334000000000     0.79997000000000     0.98660000000000
H      H      0.79529000000000     0.94930000000000     0.86027000000000
H      H      0.20471000000000     0.05070000000000     0.13973000000000
H      H      0.28271000000000     0.31337000000000     0.91972000000000
H      H      0.71729000000000     0.68663000000000     0.08028000000000
H      H      0.97369000000000     0.65026000000000     0.54613000000000
H      H      0.02631000000000     0.34974000000000     0.45387000000000
H      H      0.70265000000000     0.90846000000000     0.53773000000000
H      H      0.29735000000000     0.09154000000000     0.46227000000000
H      H      0.72408000000000     0.50645000000000     0.37266000000000
H      H      0.27592000000000     0.49355000000000     0.62734000000000
H      H      0.40515000000000     0.33885000000000     0.21364000000000
H      H      0.59485000000000     0.66115000000000     0.78636000000000
H      H      0.04758000000000     0.42760000000000     0.16655000000000
H      H      0.95242000000000     0.57240000000000     0.83345000000000
H      H      0.00898000000000     0.68400000000000     0.27848000000000
H      H      0.99102000000000     0.31600000000000     0.72152000000000
H      H      0.32791000000000     0.85164000000000     0.43743000000000
H      H      0.67209000000000     0.14836000000000     0.56257000000000
