data_default
_cell_volume          1126.961621
_symmetry_space_group_name_H-M 'P 1'
_symmetry_Int_Tables_number 1
loop_
_symmetry_equiv_pos_site_id
_symmetry_equiv_pos_as_xyz
1 x,y,z
_cell_length_a        28.7083000000
_cell_length_b        10.4017000000
_cell_length_c         3.9479000000
_cell_angle_alpha        90.0000
_cell_angle_beta        72.9289
_cell_angle_gamma        90.0000
_cell_formula_units_Z 1
loop_
_atom_site_label
_atom_site_type_symbol
_atom_site_fract_x
_atom_site_fract_y
_atom_site_fract_z
C      C      0.50628000000000     0.19164000000000     0.00199000000000
C      C      0.49372000000000     0.80836000000000     0.99801000000000
C      C      0.49372000000000     0.69164000000000     0.49801000000000
C      C      0.50628000000000     0.30836000000000     0.50199000000000
C      C      0.50414000000000     0.31287000000000     0.84565000000000
C      C      0.49586000000000     0.68713000000000     0.15435000000000
C      C      0.49586000000000     0.81287000000000     0.65435000000000
C      C      0.50414000000000     0.18713000000000     0.34565000000000
C      C      0.54535000000000     0.39414000000000     0.75381000000000
C      C      0.45465000000000     0.60586000000000     0.24619000000000
C      C      0.45465000000000     0.89414000000000     0.74619000000000
C      C      0.54535000000000     0.10586000000000     0.25381000000000
C      C      0.58803000000000     0.35224000000000     0.82310000000000
C      C      0.41197000000000     0.64776000000000     0.17690000000000
C      C      0.41197000000000     0.85224000000000     0.67690000000000
C      C      0.58803000000000     0.14776000000000     0.32310000000000
C      C      0.59010000000000     0.23221000000000     0.97795000000000
C      C      0.40990000000000     0.76779000000000     0.02205000000000
C      C      0.40990000000000     0.73221000000000     0.52205000000000
C      C      0.59010000000000     0.26779000000000     0.47795000000000
C      C      0.54957000000000     0.15034000000000     0.06938000000000
C      C      0.45043000000000     0.84966000000000     0.93062000000000
C      C      0.45043000000000     0.65034000000000     0.43062000000000
C      C      0.54957000000000     0.34966000000000     0.56938000000000
O      O      0.63056000000000     0.41565000000000     0.75918000000000
O      O      0.36944000000000     0.58435000000000     0.24082000000000
O      O      0.36944000000000     0.91565000000000     0.74082000000000
O      O      0.63056000000000     0.08435000000000     0.25918000000000
B      B      0.66005000000000     0.32747000000000     0.88779000000000
B      B      0.33995000000000     0.67253000000000     0.11221000000000
B      B      0.33995000000000     0.82747000000000     0.61221000000000
B      B      0.66005000000000     0.17253000000000     0.38779000000000
O      O      0.63407000000000     0.21136000000000     0.02406000000000
O      O      0.36593000000000     0.78864000000000     0.97594000000000
O      O      0.36593000000000     0.71136000000000     0.47594000000000
O      O      0.63407000000000     0.28864000000000     0.52406000000000
C      C      0.71073000000000     0.35495000000000     0.88515000000000
C      C      0.28927000000000     0.64505000000000     0.11485000000000
C      C      0.28927000000000     0.85495000000000     0.61485000000000
C      C      0.71073000000000     0.14505000000000     0.38515000000000
C      C      0.73949000000000     0.26683000000000     0.00807000000000
C      C      0.26051000000000     0.73317000000000     0.99193000000000
C      C      0.26051000000000     0.76683000000000     0.49193000000000
C      C      0.73949000000000     0.23317000000000     0.50807000000000
C      C      0.78676000000000     0.28798000000000     0.04093000000000
C      C      0.21324000000000     0.71202000000000     0.95907000000000
C      C      0.21324000000000     0.78798000000000     0.45907000000000
C      C      0.78676000000000     0.21202000000000     0.54093000000000
C      C      0.80970000000000     0.41006000000000     0.99818000000000
C      C      0.19030000000000     0.58994000000000     0.00182000000000
C      C      0.19030000000000     0.91006000000000     0.50182000000000
C      C      0.80970000000000     0.08994000000000     0.49818000000000
C      C      0.85596000000000     0.42686000000000     0.04662000000000
C      C      0.14404000000000     0.57314000000000     0.95338000000000
C      C      0.14404000000000     0.92686000000000     0.45338000000000
C      C      0.85596000000000     0.07314000000000     0.54662000000000
C      C      0.88030000000000     0.32134000000000     0.13783000000000
C      C      0.11970000000000     0.67866000000000     0.86217000000000
C      C      0.11970000000000     0.82134000000000     0.36217000000000
C      C      0.88030000000000     0.17866000000000     0.63783000000000
C      C      0.85872000000000     0.19908000000000     0.17806000000000
C      C      0.14128000000000     0.80092000000000     0.82194000000000
C      C      0.14128000000000     0.69908000000000     0.32194000000000
C      C      0.85872000000000     0.30092000000000     0.67806000000000
C      C      0.81243000000000     0.18309000000000     0.12978000000000
C      C      0.18757000000000     0.81691000000000     0.87022000000000
C      C      0.18757000000000     0.68309000000000     0.37022000000000
C      C      0.81243000000000     0.31691000000000     0.62978000000000
H      H      0.47621000000000     0.13374000000000     0.06778000000000
H      H      0.52379000000000     0.86626000000000     0.93222000000000
H      H      0.52379000000000     0.63374000000000     0.43222000000000
H      H      0.47621000000000     0.36626000000000     0.56778000000000
H      H      0.47254000000000     0.34178000000000     0.79834000000000
H      H      0.52746000000000     0.65822000000000     0.20166000000000
H      H      0.52746000000000     0.84178000000000     0.70166000000000
H      H      0.47254000000000     0.15822000000000     0.29834000000000
H      H      0.54463000000000     0.48170000000000     0.63923000000000
H      H      0.45537000000000     0.51830000000000     0.36077000000000
H      H      0.45537000000000     0.98170000000000     0.86077000000000
H      H      0.54463000000000     0.01830000000000     0.13923000000000
H      H      0.55175000000000     0.06387000000000     0.18548000000000
H      H      0.44825000000000     0.93613000000000     0.81452000000000
H      H      0.44825000000000     0.56387000000000     0.31452000000000
H      H      0.55175000000000     0.43613000000000     0.68548000000000
H      H      0.72384000000000     0.44252000000000     0.78877000000000
H      H      0.27616000000000     0.55748000000000     0.21123000000000
H      H      0.27616000000000     0.94252000000000     0.71123000000000
H      H      0.72384000000000     0.05748000000000     0.28877000000000
H      H      0.72432000000000     0.17831000000000     0.08453000000000
H      H      0.27568000000000     0.82169000000000     0.91547000000000
H      H      0.27568000000000     0.67831000000000     0.41547000000000
H      H      0.72432000000000     0.32169000000000     0.58453000000000
H      H      0.79307000000000     0.48862000000000     0.93219000000000
H      H      0.20693000000000     0.51138000000000     0.06781000000000
H      H      0.20693000000000     0.98862000000000     0.56781000000000
H      H      0.79307000000000     0.01138000000000     0.43219000000000
H      H      0.87178000000000     0.51575000000000     0.01706000000000
H      H      0.12822000000000     0.48425000000000     0.98294000000000
H      H      0.12822000000000     0.01575000000000     0.48294000000000
H      H      0.87178000000000     0.98425000000000     0.51706000000000
H      H      0.91361000000000     0.33360000000000     0.17689000000000
H      H      0.08639000000000     0.66640000000000     0.82311000000000
H      H      0.08639000000000     0.83360000000000     0.32311000000000
H      H      0.91361000000000     0.16640000000000     0.67689000000000
H      H      0.87648000000000     0.12218000000000     0.24442000000000
H      H      0.12352000000000     0.87782000000000     0.75558000000000
H      H      0.12352000000000     0.62218000000000     0.25558000000000
H      H      0.87648000000000     0.37782000000000     0.74442000000000
H      H      0.79757000000000     0.09318000000000     0.16101000000000
H      H      0.20243000000000     0.90682000000000     0.83899000000000
H      H      0.20243000000000     0.59318000000000     0.33899000000000
H      H      0.79757000000000     0.40682000000000     0.66101000000000
