data_default
_cell_volume          1310.429096
_symmetry_space_group_name_H-M 'P 1'
_symmetry_Int_Tables_number 1
loop_
_symmetry_equiv_pos_site_id
_symmetry_equiv_pos_as_xyz
1 x,y,z
_cell_length_a         3.8600000000
_cell_length_b        14.5000000000
_cell_length_c        25.9400000000
_cell_angle_alpha        90.0000
_cell_angle_beta        64.5000
_cell_angle_gamma        90.0000
_cell_formula_units_Z 1
loop_
_atom_site_label
_atom_site_type_symbol
_atom_site_fract_x
_atom_site_fract_y
_atom_site_fract_z
H      H      0.06910000000000     0.70438000000000     0.01112000000000
H      H      0.93090000000000     0.29562000000000     0.98888000000000
H      H      0.93090000000000     0.20438000000000     0.48888000000000
H      H      0.06910000000000     0.79562000000000     0.51112000000000
C      C      0.05137000000000     0.70419000000000     0.05359000000000
C      C      0.94863000000000     0.29581000000000     0.94641000000000
C      C      0.94863000000000     0.20419000000000     0.44641000000000
C      C      0.05137000000000     0.79581000000000     0.55359000000000
C      C      0.99370000000000     0.78495000000000     0.08550000000000
C      C      0.00630000000000     0.21505000000000     0.91450000000000
C      C      0.00630000000000     0.28495000000000     0.41450000000000
C      C      0.99370000000000     0.71505000000000     0.58550000000000
H      H      0.96606000000000     0.84943000000000     0.06714000000000
H      H      0.03394000000000     0.15057000000000     0.93286000000000
H      H      0.03394000000000     0.34943000000000     0.43286000000000
H      H      0.96606000000000     0.65057000000000     0.56714000000000
C      C      0.97145000000000     0.78362000000000     0.14022000000000
C      C      0.02855000000000     0.21638000000000     0.85978000000000
C      C      0.02855000000000     0.28362000000000     0.35978000000000
C      C      0.97145000000000     0.71638000000000     0.64022000000000
H      H      0.92682000000000     0.84708000000000     0.16366000000000
H      H      0.07318000000000     0.15292000000000     0.83634000000000
H      H      0.07318000000000     0.34708000000000     0.33634000000000
H      H      0.92682000000000     0.65292000000000     0.66366000000000
C      C      0.00580000000000     0.70147000000000     0.16566000000000
C      C      0.99420000000000     0.29853000000000     0.83434000000000
C      C      0.99420000000000     0.20147000000000     0.33434000000000
C      C      0.00580000000000     0.79853000000000     0.66566000000000
H      H      0.98901000000000     0.69962000000000     0.20807000000000
H      H      0.01099000000000     0.30038000000000     0.79193000000000
H      H      0.01099000000000     0.19962000000000     0.29193000000000
H      H      0.98901000000000     0.80038000000000     0.70807000000000
C      C      0.06231000000000     0.62278000000000     0.13381000000000
C      C      0.93769000000000     0.37722000000000     0.86619000000000
C      C      0.93769000000000     0.12278000000000     0.36619000000000
C      C      0.06231000000000     0.87722000000000     0.63381000000000
C      C      0.08455000000000     0.62410000000000     0.07913000000000
C      C      0.91545000000000     0.37590000000000     0.92087000000000
C      C      0.91545000000000     0.12410000000000     0.42087000000000
C      C      0.08455000000000     0.87590000000000     0.57913000000000
O      O      0.14134000000000     0.53653000000000     0.05822000000000
O      O      0.85866000000000     0.46347000000000     0.94178000000000
O      O      0.85866000000000     0.03653000000000     0.44178000000000
O      O      0.14134000000000     0.96347000000000     0.55822000000000
B      B      0.15357000000000     0.48161000000000     0.10078000000000
B      B      0.84643000000000     0.51839000000000     0.89922000000000
B      B      0.84643000000000     0.98161000000000     0.39922000000000
B      B      0.15357000000000     0.01839000000000     0.60078000000000
O      O      0.10494000000000     0.53435000000000     0.14774000000000
O      O      0.89506000000000     0.46565000000000     0.85226000000000
O      O      0.89506000000000     0.03435000000000     0.35226000000000
O      O      0.10494000000000     0.96565000000000     0.64774000000000
C      C      0.21328000000000     0.37618000000000     0.09622000000000
C      C      0.78672000000000     0.62382000000000     0.90378000000000
C      C      0.78672000000000     0.87618000000000     0.40378000000000
C      C      0.21328000000000     0.12382000000000     0.59622000000000
H      H      0.24800000000000     0.34272000000000     0.05721000000000
H      H      0.75200000000000     0.65728000000000     0.94279000000000
H      H      0.75200000000000     0.84272000000000     0.44279000000000
H      H      0.24800000000000     0.15728000000000     0.55721000000000
C      C      0.22214000000000     0.32714000000000     0.13907000000000
C      C      0.77786000000000     0.67286000000000     0.86093000000000
C      C      0.77786000000000     0.82714000000000     0.36093000000000
C      C      0.22214000000000     0.17286000000000     0.63907000000000
H      H      0.18606000000000     0.36370000000000     0.17726000000000
H      H      0.81394000000000     0.63630000000000     0.82274000000000
H      H      0.81394000000000     0.86370000000000     0.32274000000000
H      H      0.18606000000000     0.13630000000000     0.67726000000000
C      C      0.27616000000000     0.22670000000000     0.14154000000000
C      C      0.72384000000000     0.77330000000000     0.85846000000000
C      C      0.72384000000000     0.72670000000000     0.35846000000000
C      C      0.27616000000000     0.27330000000000     0.64154000000000
C      C      0.32775000000000     0.16710000000000     0.09656000000000
C      C      0.67225000000000     0.83290000000000     0.90344000000000
C      C      0.67225000000000     0.66710000000000     0.40344000000000
C      C      0.32775000000000     0.33290000000000     0.59656000000000
H      H      0.32950000000000     0.19362000000000     0.05777000000000
H      H      0.67050000000000     0.80638000000000     0.94223000000000
H      H      0.67050000000000     0.69362000000000     0.44223000000000
H      H      0.32950000000000     0.30638000000000     0.55777000000000
C      C      0.37701000000000     0.07365000000000     0.10118000000000
C      C      0.62299000000000     0.92635000000000     0.89882000000000
C      C      0.62299000000000     0.57365000000000     0.39882000000000
C      C      0.37701000000000     0.42635000000000     0.60118000000000
H      H      0.41641000000000     0.02871000000000     0.06609000000000
H      H      0.58359000000000     0.97129000000000     0.93391000000000
H      H      0.58359000000000     0.52871000000000     0.43391000000000
H      H      0.41641000000000     0.47129000000000     0.56609000000000
C      C      0.37595000000000     0.03756000000000     0.15082000000000
C      C      0.62405000000000     0.96244000000000     0.84918000000000
C      C      0.62405000000000     0.53756000000000     0.34918000000000
C      C      0.37595000000000     0.46244000000000     0.65082000000000
H      H      0.41443000000000     0.96472000000000     0.15427000000000
H      H      0.58557000000000     0.03528000000000     0.84573000000000
H      H      0.58557000000000     0.46472000000000     0.34573000000000
H      H      0.41443000000000     0.53528000000000     0.65427000000000
C      C      0.32518000000000     0.09575000000000     0.19576000000000
C      C      0.67482000000000     0.90425000000000     0.80424000000000
C      C      0.67482000000000     0.59575000000000     0.30424000000000
C      C      0.32518000000000     0.40425000000000     0.69576000000000
H      H      0.32388000000000     0.06847000000000     0.23440000000000
H      H      0.67612000000000     0.93153000000000     0.76560000000000
H      H      0.67612000000000     0.56847000000000     0.26560000000000
H      H      0.32388000000000     0.43153000000000     0.73440000000000
C      C      0.27578000000000     0.18949000000000     0.19102000000000
C      C      0.72422000000000     0.81051000000000     0.80898000000000
C      C      0.72422000000000     0.68949000000000     0.30898000000000
C      C      0.27578000000000     0.31051000000000     0.69102000000000
H      H      0.23642000000000     0.23437000000000     0.22618000000000
H      H      0.76358000000000     0.76563000000000     0.77382000000000
H      H      0.76358000000000     0.73437000000000     0.27382000000000
H      H      0.23642000000000     0.26563000000000     0.72618000000000
