data_default
_cell_volume          2257.219973
_symmetry_space_group_name_H-M 'P 1'
_symmetry_Int_Tables_number 1
loop_
_symmetry_equiv_pos_site_id
_symmetry_equiv_pos_as_xyz
1 x,y,z
_cell_length_a        12.2054000000
_cell_length_b         7.5400000000
_cell_length_c        27.6062000000
_cell_angle_alpha        90.0000
_cell_angle_beta        62.6819
_cell_angle_gamma        90.0000
_cell_formula_units_Z 1
loop_
_atom_site_label
_atom_site_type_symbol
_atom_site_fract_x
_atom_site_fract_y
_atom_site_fract_z
C      C      0.76633000000000     0.58879000000000     0.21374000000000
C      C      0.26633000000000     0.08879000000000     0.21374000000000
C      C      0.23367000000000     0.41121000000000     0.78626000000000
C      C      0.73367000000000     0.91121000000000     0.78626000000000
C      C      0.23367000000000     0.58879000000000     0.28626000000000
C      C      0.73367000000000     0.08879000000000     0.28626000000000
C      C      0.76633000000000     0.41121000000000     0.71374000000000
C      C      0.26633000000000     0.91121000000000     0.71374000000000
C      C      0.71012000000000     0.49088000000000     0.18743000000000
C      C      0.21012000000000     0.99088000000000     0.18743000000000
C      C      0.28988000000000     0.50912000000000     0.81257000000000
C      C      0.78988000000000     0.00912000000000     0.81257000000000
C      C      0.28988000000000     0.49088000000000     0.31257000000000
C      C      0.78988000000000     0.99088000000000     0.31257000000000
C      C      0.71012000000000     0.50912000000000     0.68743000000000
C      C      0.21012000000000     0.00912000000000     0.68743000000000
C      C      0.75645000000000     0.50088000000000     0.13031000000000
C      C      0.25645000000000     0.00088000000000     0.13031000000000
C      C      0.24355000000000     0.49912000000000     0.86969000000000
C      C      0.74355000000000     0.99912000000000     0.86969000000000
C      C      0.24355000000000     0.50088000000000     0.36969000000000
C      C      0.74355000000000     0.00088000000000     0.36969000000000
C      C      0.75645000000000     0.49912000000000     0.63031000000000
C      C      0.25645000000000     0.99912000000000     0.63031000000000
C      C      0.85918000000000     0.60865000000000     0.10051000000000
C      C      0.35918000000000     0.10865000000000     0.10051000000000
C      C      0.14082000000000     0.39135000000000     0.89949000000000
C      C      0.64082000000000     0.89135000000000     0.89949000000000
C      C      0.14082000000000     0.60865000000000     0.39949000000000
C      C      0.64082000000000     0.10865000000000     0.39949000000000
C      C      0.85918000000000     0.39135000000000     0.60051000000000
C      C      0.35918000000000     0.89135000000000     0.60051000000000
C      C      0.91463000000000     0.70618000000000     0.12648000000000
C      C      0.41463000000000     0.20618000000000     0.12648000000000
C      C      0.08537000000000     0.29382000000000     0.87352000000000
C      C      0.58537000000000     0.79382000000000     0.87352000000000
C      C      0.08537000000000     0.70618000000000     0.37352000000000
C      C      0.58537000000000     0.20618000000000     0.37352000000000
C      C      0.91463000000000     0.29382000000000     0.62648000000000
C      C      0.41463000000000     0.79382000000000     0.62648000000000
C      C      0.86939000000000     0.69791000000000     0.18317000000000
C      C      0.36939000000000     0.19791000000000     0.18317000000000
C      C      0.13061000000000     0.30209000000000     0.81683000000000
C      C      0.63061000000000     0.80209000000000     0.81683000000000
C      C      0.13061000000000     0.69791000000000     0.31683000000000
C      C      0.63061000000000     0.19791000000000     0.31683000000000
C      C      0.86939000000000     0.30209000000000     0.68317000000000
C      C      0.36939000000000     0.80209000000000     0.68317000000000
O      O      0.91653000000000     0.63469000000000     0.04631000000000
O      O      0.41653000000000     0.13469000000000     0.04631000000000
O      O      0.08347000000000     0.36531000000000     0.95369000000000
O      O      0.58347000000000     0.86531000000000     0.95369000000000
O      O      0.08347000000000     0.63469000000000     0.45369000000000
O      O      0.58347000000000     0.13469000000000     0.45369000000000
O      O      0.91653000000000     0.36531000000000     0.54631000000000
O      O      0.41653000000000     0.86531000000000     0.54631000000000
B      B      0.01346000000000     0.75619000000000     0.03939000000000
B      B      0.51346000000000     0.25619000000000     0.03939000000000
B      B      0.98654000000000     0.24381000000000     0.96061000000000
B      B      0.48654000000000     0.74381000000000     0.96061000000000
B      B      0.98654000000000     0.75619000000000     0.46061000000000
B      B      0.48654000000000     0.25619000000000     0.46061000000000
B      B      0.01346000000000     0.24381000000000     0.53939000000000
B      B      0.51346000000000     0.74381000000000     0.53939000000000
O      O      0.01097000000000     0.80148000000000     0.09055000000000
O      O      0.51097000000000     0.30148000000000     0.09055000000000
O      O      0.98903000000000     0.19852000000000     0.90945000000000
O      O      0.48903000000000     0.69852000000000     0.90945000000000
O      O      0.98903000000000     0.80148000000000     0.40945000000000
O      O      0.48903000000000     0.30148000000000     0.40945000000000
O      O      0.01097000000000     0.19852000000000     0.59055000000000
O      O      0.51097000000000     0.69852000000000     0.59055000000000
C      C      0.10265000000000     0.82586000000000     0.98544000000000
C      C      0.60265000000000     0.32586000000000     0.98544000000000
C      C      0.89735000000000     0.17414000000000     0.01456000000000
C      C      0.39735000000000     0.67414000000000     0.01456000000000
C      C      0.89735000000000     0.82586000000000     0.51456000000000
C      C      0.39735000000000     0.32586000000000     0.51456000000000
C      C      0.10265000000000     0.17414000000000     0.48544000000000
C      C      0.60265000000000     0.67414000000000     0.48544000000000
C      C      0.19819000000000     0.94581000000000     0.97760000000000
C      C      0.69819000000000     0.44581000000000     0.97760000000000
C      C      0.80181000000000     0.05419000000000     0.02240000000000
C      C      0.30181000000000     0.55419000000000     0.02240000000000
C      C      0.80181000000000     0.94581000000000     0.52240000000000
C      C      0.30181000000000     0.44581000000000     0.52240000000000
C      C      0.19819000000000     0.05419000000000     0.47760000000000
C      C      0.69819000000000     0.55419000000000     0.47760000000000
C      C      0.28510000000000     0.02141000000000     0.92758000000000
C      C      0.78510000000000     0.52141000000000     0.92758000000000
C      C      0.71490000000000     0.97859000000000     0.07242000000000
C      C      0.21490000000000     0.47859000000000     0.07242000000000
C      C      0.71490000000000     0.02141000000000     0.57242000000000
C      C      0.21490000000000     0.52141000000000     0.57242000000000
C      C      0.28510000000000     0.97859000000000     0.42758000000000
C      C      0.78510000000000     0.47859000000000     0.42758000000000
C      C      0.29225000000000     0.97741000000000     0.87627000000000
C      C      0.79225000000000     0.47741000000000     0.87627000000000
C      C      0.70775000000000     0.02259000000000     0.12373000000000
C      C      0.20775000000000     0.52259000000000     0.12373000000000
C      C      0.70775000000000     0.97741000000000     0.62373000000000
C      C      0.20775000000000     0.47741000000000     0.62373000000000
C      C      0.29225000000000     0.02259000000000     0.37627000000000
C      C      0.79225000000000     0.52259000000000     0.37627000000000
C      C      0.38052000000000     0.05553000000000     0.82772000000000
C      C      0.88052000000000     0.55553000000000     0.82772000000000
C      C      0.61948000000000     0.94447000000000     0.17228000000000
C      C      0.11948000000000     0.44447000000000     0.17228000000000
C      C      0.61948000000000     0.05553000000000     0.67228000000000
C      C      0.11948000000000     0.55553000000000     0.67228000000000
C      C      0.38052000000000     0.94447000000000     0.32772000000000
C      C      0.88052000000000     0.44447000000000     0.32772000000000
C      C      0.46315000000000     0.18149000000000     0.82961000000000
C      C      0.96315000000000     0.68149000000000     0.82961000000000
C      C      0.53685000000000     0.81851000000000     0.17039000000000
C      C      0.03685000000000     0.31851000000000     0.17039000000000
C      C      0.53685000000000     0.18149000000000     0.67039000000000
C      C      0.03685000000000     0.68149000000000     0.67039000000000
C      C      0.46315000000000     0.81851000000000     0.32961000000000
C      C      0.96315000000000     0.31851000000000     0.32961000000000
C      C      0.45768000000000     0.22916000000000     0.87980000000000
C      C      0.95768000000000     0.72916000000000     0.87980000000000
C      C      0.54232000000000     0.77084000000000     0.12020000000000
C      C      0.04232000000000     0.27084000000000     0.12020000000000
C      C      0.54232000000000     0.22916000000000     0.62020000000000
C      C      0.04232000000000     0.72916000000000     0.62020000000000
C      C      0.45768000000000     0.77084000000000     0.37980000000000
C      C      0.95768000000000     0.27084000000000     0.37980000000000
C      C      0.36990000000000     0.14887000000000     0.92808000000000
C      C      0.86990000000000     0.64887000000000     0.92808000000000
C      C      0.63010000000000     0.85113000000000     0.07192000000000
C      C      0.13010000000000     0.35113000000000     0.07192000000000
C      C      0.63010000000000     0.14887000000000     0.57192000000000
C      C      0.13010000000000     0.64887000000000     0.57192000000000
C      C      0.36990000000000     0.85113000000000     0.42808000000000
C      C      0.86990000000000     0.35113000000000     0.42808000000000
H      H      0.73202000000000     0.58069000000000     0.25517000000000
H      H      0.23202000000000     0.08069000000000     0.25517000000000
H      H      0.26798000000000     0.41931000000000     0.74483000000000
H      H      0.76798000000000     0.91931000000000     0.74483000000000
H      H      0.26798000000000     0.58069000000000     0.24483000000000
H      H      0.76798000000000     0.08069000000000     0.24483000000000
H      H      0.73202000000000     0.41931000000000     0.75517000000000
H      H      0.23202000000000     0.91931000000000     0.75517000000000
H      H      0.63495000000000     0.41324000000000     0.20977000000000
H      H      0.13495000000000     0.91324000000000     0.20977000000000
H      H      0.36505000000000     0.58676000000000     0.79023000000000
H      H      0.86505000000000     0.08676000000000     0.79023000000000
H      H      0.36505000000000     0.41324000000000     0.29023000000000
H      H      0.86505000000000     0.91324000000000     0.29023000000000
H      H      0.63495000000000     0.58676000000000     0.70977000000000
H      H      0.13495000000000     0.08676000000000     0.70977000000000
H      H      0.71622000000000     0.43345000000000     0.11054000000000
H      H      0.21622000000000     0.93345000000000     0.11054000000000
H      H      0.28378000000000     0.56655000000000     0.88946000000000
H      H      0.78378000000000     0.06655000000000     0.88946000000000
H      H      0.28378000000000     0.43345000000000     0.38946000000000
H      H      0.78378000000000     0.93345000000000     0.38946000000000
H      H      0.71622000000000     0.56655000000000     0.61054000000000
H      H      0.21622000000000     0.06655000000000     0.61054000000000
H      H      0.91181000000000     0.76912000000000     0.20113000000000
H      H      0.41181000000000     0.26912000000000     0.20113000000000
H      H      0.08819000000000     0.23088000000000     0.79887000000000
H      H      0.58819000000000     0.73088000000000     0.79887000000000
H      H      0.08819000000000     0.76912000000000     0.29887000000000
H      H      0.58819000000000     0.26912000000000     0.29887000000000
H      H      0.91181000000000     0.23088000000000     0.70113000000000
H      H      0.41181000000000     0.73088000000000     0.70113000000000
H      H      0.09001000000000     0.78114000000000     0.95372000000000
H      H      0.59001000000000     0.28114000000000     0.95372000000000
H      H      0.90999000000000     0.21886000000000     0.04628000000000
H      H      0.40999000000000     0.71886000000000     0.04628000000000
H      H      0.90999000000000     0.78114000000000     0.54628000000000
H      H      0.40999000000000     0.28114000000000     0.54628000000000
H      H      0.09001000000000     0.21886000000000     0.45372000000000
H      H      0.59001000000000     0.71886000000000     0.45372000000000
H      H      0.20497000000000     0.98231000000000     0.01193000000000
H      H      0.70497000000000     0.48231000000000     0.01193000000000
H      H      0.79503000000000     0.01769000000000     0.98807000000000
H      H      0.29503000000000     0.51769000000000     0.98807000000000
H      H      0.79503000000000     0.98231000000000     0.48807000000000
H      H      0.29503000000000     0.48231000000000     0.48807000000000
H      H      0.20497000000000     0.01769000000000     0.51193000000000
H      H      0.70497000000000     0.51769000000000     0.51193000000000
H      H      0.23312000000000     0.88809000000000     0.87341000000000
H      H      0.73312000000000     0.38809000000000     0.87341000000000
H      H      0.76688000000000     0.11191000000000     0.12659000000000
H      H      0.26688000000000     0.61191000000000     0.12659000000000
H      H      0.76688000000000     0.88809000000000     0.62659000000000
H      H      0.26688000000000     0.38809000000000     0.62659000000000
H      H      0.23312000000000     0.11191000000000     0.37341000000000
H      H      0.73312000000000     0.61191000000000     0.37341000000000
H      H      0.38424000000000     0.02149000000000     0.79116000000000
H      H      0.88424000000000     0.52149000000000     0.79116000000000
H      H      0.61576000000000     0.97851000000000     0.20884000000000
H      H      0.11576000000000     0.47851000000000     0.20884000000000
H      H      0.61576000000000     0.02149000000000     0.70884000000000
H      H      0.11576000000000     0.52149000000000     0.70884000000000
H      H      0.38424000000000     0.97851000000000     0.29116000000000
H      H      0.88424000000000     0.47851000000000     0.29116000000000
H      H      0.52682000000000     0.23924000000000     0.79449000000000
H      H      0.02682000000000     0.73924000000000     0.79449000000000
H      H      0.47318000000000     0.76076000000000     0.20551000000000
H      H      0.97318000000000     0.26076000000000     0.20551000000000
H      H      0.47318000000000     0.23924000000000     0.70551000000000
H      H      0.97318000000000     0.73924000000000     0.70551000000000
H      H      0.52682000000000     0.76076000000000     0.29449000000000
H      H      0.02682000000000     0.26076000000000     0.29449000000000
H      H      0.51715000000000     0.32233000000000     0.88109000000000
H      H      0.01715000000000     0.82233000000000     0.88109000000000
H      H      0.48285000000000     0.67767000000000     0.11891000000000
H      H      0.98285000000000     0.17767000000000     0.11891000000000
H      H      0.48285000000000     0.32233000000000     0.61891000000000
H      H      0.98285000000000     0.82233000000000     0.61891000000000
H      H      0.51715000000000     0.67767000000000     0.38109000000000
H      H      0.01715000000000     0.17767000000000     0.38109000000000
H      H      0.36820000000000     0.18509000000000     0.96404000000000
H      H      0.86820000000000     0.68509000000000     0.96404000000000
H      H      0.63180000000000     0.81491000000000     0.03596000000000
H      H      0.13180000000000     0.31491000000000     0.03596000000000
H      H      0.63180000000000     0.18509000000000     0.53596000000000
H      H      0.13180000000000     0.68509000000000     0.53596000000000
H      H      0.36820000000000     0.81491000000000     0.46404000000000
H      H      0.86820000000000     0.31491000000000     0.46404000000000
