data_default
_cell_volume          1199.090008
_symmetry_space_group_name_H-M 'P 1'
_symmetry_Int_Tables_number 1
loop_
_symmetry_equiv_pos_site_id
_symmetry_equiv_pos_as_xyz
1 x,y,z
_cell_length_a        12.4377430000
_cell_length_b         5.0503600000
_cell_length_c        19.2799320000
_cell_angle_alpha        90.0000
_cell_angle_beta        98.0658
_cell_angle_gamma        90.0000
_cell_formula_units_Z 1
loop_
_atom_site_label
_atom_site_type_symbol
_atom_site_fract_x
_atom_site_fract_y
_atom_site_fract_z
B      B      0.74000000000000     0.21630000000000     0.94633000000000
B      B      0.26000000000000     0.78370000000000     0.05367000000000
B      B      0.26000000000000     0.71630000000000     0.55367000000000
B      B      0.74000000000000     0.28370000000000     0.44633000000000
O      O      0.64393000000000     0.32940000000000     0.96283000000000
O      O      0.35607000000000     0.67060000000000     0.03717000000000
O      O      0.35607000000000     0.82940000000000     0.53717000000000
O      O      0.64393000000000     0.17060000000000     0.46283000000000
C      C      0.61536000000000     0.51613000000000     0.91116000000000
C      C      0.38464000000000     0.48387000000000     0.08884000000000
C      C      0.38464000000000     0.01613000000000     0.58884000000000
C      C      0.61536000000000     0.98387000000000     0.41116000000000
C      C      0.52637000000000     0.68465000000000     0.90285000000000
C      C      0.47363000000000     0.31535000000000     0.09715000000000
C      C      0.47363000000000     0.18465000000000     0.59715000000000
C      C      0.52637000000000     0.81535000000000     0.40285000000000
C      C      0.51735000000000     0.85525000000000     0.84513000000000
C      C      0.48265000000000     0.14475000000000     0.15487000000000
C      C      0.48265000000000     0.35525000000000     0.65487000000000
C      C      0.51735000000000     0.64475000000000     0.34513000000000
C      C      0.59414000000000     0.85513000000000     0.79844000000000
C      C      0.40586000000000     0.14487000000000     0.20156000000000
C      C      0.40586000000000     0.35513000000000     0.70156000000000
C      C      0.59414000000000     0.64487000000000     0.29844000000000
C      C      0.68371000000000     0.68403000000000     0.80735000000000
C      C      0.31629000000000     0.31597000000000     0.19265000000000
C      C      0.31629000000000     0.18403000000000     0.69265000000000
C      C      0.68371000000000     0.81597000000000     0.30735000000000
C      C      0.69175000000000     0.51601000000000     0.86467000000000
C      C      0.30825000000000     0.48399000000000     0.13533000000000
C      C      0.30825000000000     0.01601000000000     0.63533000000000
C      C      0.69175000000000     0.98399000000000     0.36467000000000
O      O      0.77074000000000     0.32896000000000     0.88582000000000
O      O      0.22926000000000     0.67104000000000     0.11418000000000
O      O      0.22926000000000     0.82896000000000     0.61418000000000
O      O      0.77074000000000     0.17104000000000     0.38582000000000
C      C      0.80310000000000     0.99598000000000     0.98914000000000
C      C      0.19690000000000     0.00402000000000     0.01086000000000
C      C      0.19690000000000     0.49598000000000     0.51086000000000
C      C      0.80310000000000     0.50402000000000     0.48914000000000
C      C      0.76893000000000     0.89807000000000     0.04755000000000
C      C      0.23107000000000     0.10193000000000     0.95245000000000
C      C      0.23107000000000     0.39807000000000     0.45245000000000
C      C      0.76893000000000     0.60193000000000     0.54755000000000
C      C      0.82144000000000     0.68924000000000     0.09306000000000
C      C      0.17856000000000     0.31076000000000     0.90694000000000
C      C      0.17856000000000     0.18924000000000     0.40694000000000
C      C      0.82144000000000     0.81076000000000     0.59306000000000
C      C      0.93079000000000     0.61800000000000     0.09340000000000
C      C      0.06921000000000     0.38200000000000     0.90660000000000
C      C      0.06921000000000     0.11800000000000     0.40660000000000
C      C      0.93079000000000     0.88200000000000     0.59340000000000
C      C      0.97697000000000     0.41563000000000     0.13674000000000
C      C      0.02303000000000     0.58437000000000     0.86326000000000
C      C      0.02303000000000     0.91563000000000     0.36326000000000
C      C      0.97697000000000     0.08437000000000     0.63674000000000
C      C      0.91541000000000     0.28162000000000     0.18082000000000
C      C      0.08459000000000     0.71838000000000     0.81918000000000
C      C      0.08459000000000     0.78162000000000     0.31918000000000
C      C      0.91541000000000     0.21838000000000     0.68082000000000
C      C      0.80704000000000     0.35226000000000     0.18161000000000
C      C      0.19296000000000     0.64774000000000     0.81839000000000
C      C      0.19296000000000     0.85226000000000     0.31839000000000
C      C      0.80704000000000     0.14774000000000     0.68161000000000
C      C      0.76074000000000     0.55523000000000     0.13836000000000
C      C      0.23926000000000     0.44477000000000     0.86164000000000
C      C      0.23926000000000     0.05523000000000     0.36164000000000
C      C      0.76074000000000     0.94477000000000     0.63836000000000
H      H      0.46772000000000     0.68281000000000     0.93924000000000
H      H      0.53228000000000     0.31719000000000     0.06076000000000
H      H      0.53228000000000     0.18281000000000     0.56076000000000
H      H      0.46772000000000     0.81719000000000     0.43924000000000
H      H      0.44937000000000     0.99075000000000     0.83633000000000
H      H      0.55063000000000     0.00925000000000     0.16367000000000
H      H      0.55063000000000     0.49075000000000     0.66367000000000
H      H      0.44937000000000     0.50925000000000     0.33633000000000
H      H      0.58428000000000     0.99031000000000     0.75450000000000
H      H      0.41572000000000     0.00969000000000     0.24550000000000
H      H      0.41572000000000     0.49031000000000     0.74550000000000
H      H      0.58428000000000     0.50969000000000     0.25450000000000
H      H      0.74354000000000     0.68177000000000     0.77177000000000
H      H      0.25646000000000     0.31823000000000     0.22823000000000
H      H      0.25646000000000     0.18177000000000     0.72823000000000
H      H      0.74354000000000     0.81823000000000     0.27177000000000
H      H      0.87595000000000     0.91594000000000     0.97191000000000
H      H      0.12405000000000     0.08406000000000     0.02809000000000
H      H      0.12405000000000     0.41594000000000     0.52809000000000
H      H      0.87595000000000     0.58406000000000     0.47191000000000
H      H      0.69416000000000     0.97690000000000     0.06264000000000
H      H      0.30584000000000     0.02310000000000     0.93736000000000
H      H      0.30584000000000     0.47690000000000     0.43736000000000
H      H      0.69416000000000     0.52310000000000     0.56264000000000
H      H      0.97989000000000     0.72434000000000     0.06052000000000
H      H      0.02011000000000     0.27566000000000     0.93948000000000
H      H      0.02011000000000     0.22434000000000     0.43948000000000
H      H      0.97989000000000     0.77566000000000     0.56052000000000
H      H      0.06137000000000     0.36363000000000     0.13653000000000
H      H      0.93863000000000     0.63637000000000     0.86347000000000
H      H      0.93863000000000     0.86363000000000     0.36347000000000
H      H      0.06137000000000     0.13637000000000     0.63653000000000
H      H      0.95166000000000     0.12459000000000     0.21459000000000
H      H      0.04834000000000     0.87541000000000     0.78541000000000
H      H      0.04834000000000     0.62459000000000     0.28541000000000
H      H      0.95166000000000     0.37541000000000     0.71459000000000
H      H      0.75887000000000     0.25046000000000     0.21593000000000
H      H      0.24113000000000     0.74954000000000     0.78407000000000
H      H      0.24113000000000     0.75046000000000     0.28407000000000
H      H      0.75887000000000     0.24954000000000     0.71593000000000
H      H      0.67663000000000     0.61009000000000     0.13890000000000
H      H      0.32337000000000     0.38991000000000     0.86110000000000
H      H      0.32337000000000     0.11009000000000     0.36110000000000
H      H      0.67663000000000     0.88991000000000     0.63890000000000
