data_default
_cell_volume          1088.781963
_symmetry_space_group_name_H-M 'P 1'
_symmetry_Int_Tables_number 1
loop_
_symmetry_equiv_pos_site_id
_symmetry_equiv_pos_as_xyz
1 x,y,z
_cell_length_a        10.1393000000
_cell_length_b         3.5087000000
_cell_length_c        30.6046000000
_cell_angle_alpha        90.0000
_cell_angle_beta        90.0000
_cell_angle_gamma        90.0000
_cell_formula_units_Z 1
loop_
_atom_site_label
_atom_site_type_symbol
_atom_site_fract_x
_atom_site_fract_y
_atom_site_fract_z
B      B      0.20130000000000     0.99980000000000     0.83160000000000
B      B      0.29870000000000     0.00020000000000     0.33160000000000
B      B      0.70130000000000     0.50020000000000     0.16840000000000
B      B      0.79870000000000     0.49980000000000     0.66840000000000
C      C      0.19680000000000     0.99990000000000     0.77940000000000
C      C      0.30320000000000     0.00010000000000     0.27940000000000
C      C      0.69680000000000     0.50010000000000     0.22060000000000
C      C      0.80320000000000     0.49990000000000     0.72060000000000
C      C      0.29780000000000     0.99790000000000     0.75260000000000
C      C      0.20220000000000     0.00210000000000     0.25260000000000
C      C      0.79780000000000     0.50210000000000     0.24740000000000
C      C      0.70220000000000     0.49790000000000     0.74740000000000
C      C      0.29370000000000     0.99800000000000     0.70450000000000
C      C      0.20630000000000     0.00200000000000     0.20450000000000
C      C      0.79370000000000     0.50200000000000     0.29550000000000
C      C      0.70630000000000     0.49800000000000     0.79550000000000
C      C      0.17310000000000     0.99960000000000     0.68300000000000
C      C      0.32690000000000     0.00040000000000     0.18300000000000
C      C      0.67310000000000     0.50040000000000     0.31700000000000
C      C      0.82690000000000     0.49960000000000     0.81700000000000
C      C      0.16920000000000     0.00050000000000     0.63760000000000
C      C      0.33080000000000     0.99950000000000     0.13760000000000
C      C      0.66920000000000     0.49950000000000     0.36240000000000
C      C      0.83080000000000     0.50050000000000     0.86240000000000
C      C      0.28590000000000     0.99820000000000     0.61370000000000
C      C      0.21410000000000     0.00180000000000     0.11370000000000
C      C      0.78590000000000     0.50180000000000     0.38630000000000
C      C      0.71410000000000     0.49820000000000     0.88630000000000
C      C      0.40660000000000     0.99600000000000     0.63530000000000
C      C      0.09340000000000     0.00400000000000     0.13530000000000
C      C      0.90660000000000     0.50400000000000     0.36470000000000
C      C      0.59340000000000     0.49600000000000     0.86470000000000
C      C      0.41040000000000     0.99580000000000     0.68070000000000
C      C      0.08960000000000     0.00420000000000     0.18070000000000
C      C      0.91040000000000     0.50420000000000     0.31930000000000
C      C      0.58960000000000     0.49580000000000     0.81930000000000
O      O      0.09420000000000     0.00170000000000     0.85890000000000
O      O      0.40580000000000     0.99830000000000     0.35890000000000
O      O      0.59420000000000     0.49830000000000     0.14110000000000
O      O      0.90580000000000     0.50170000000000     0.64110000000000
O      O      0.31280000000000     0.99760000000000     0.85690000000000
O      O      0.18720000000000     0.00240000000000     0.35690000000000
O      O      0.81280000000000     0.50240000000000     0.14310000000000
O      O      0.68720000000000     0.49760000000000     0.64310000000000
C      C      0.13870000000000     0.00090000000000     0.90090000000000
C      C      0.36130000000000     0.99910000000000     0.40090000000000
C      C      0.63870000000000     0.49910000000000     0.09910000000000
C      C      0.86130000000000     0.50090000000000     0.59910000000000
C      C      0.27570000000000     0.99820000000000     0.89960000000000
C      C      0.22430000000000     0.00180000000000     0.39960000000000
C      C      0.77570000000000     0.50180000000000     0.10040000000000
C      C      0.72430000000000     0.49820000000000     0.60040000000000
C      C      0.34760000000000     0.99680000000000     0.93820000000000
C      C      0.15240000000000     0.00320000000000     0.43820000000000
C      C      0.84760000000000     0.50320000000000     0.06180000000000
C      C      0.65240000000000     0.49680000000000     0.56180000000000
C      C      0.28250000000000     0.99800000000000     0.97820000000000
C      C      0.21750000000000     0.00200000000000     0.47820000000000
C      C      0.78250000000000     0.50200000000000     0.02180000000000
C      C      0.71750000000000     0.49800000000000     0.52180000000000
C      C      0.14540000000000     0.99940000000000     0.97950000000000
C      C      0.35460000000000     0.00060000000000     0.47950000000000
C      C      0.64540000000000     0.50060000000000     0.02050000000000
C      C      0.85460000000000     0.49940000000000     0.52050000000000
C      C      0.07360000000000     0.00210000000000     0.94090000000000
C      C      0.42640000000000     0.99790000000000     0.44090000000000
C      C      0.57360000000000     0.49790000000000     0.05910000000000
C      C      0.92640000000000     0.50210000000000     0.55910000000000
H      H      0.08240000000000     0.00200000000000     0.70150000000000
H      H      0.41760000000000     0.99800000000000     0.20150000000000
H      H      0.58240000000000     0.49800000000000     0.29850000000000
H      H      0.91760000000000     0.50200000000000     0.79850000000000
H      H      0.07540000000000     0.00230000000000     0.62090000000000
H      H      0.42460000000000     0.99770000000000     0.12090000000000
H      H      0.57540000000000     0.49770000000000     0.37910000000000
H      H      0.92460000000000     0.50230000000000     0.87910000000000
H      H      0.28280000000000     0.99830000000000     0.57840000000000
H      H      0.21720000000000     0.00170000000000     0.07840000000000
H      H      0.78280000000000     0.50170000000000     0.42160000000000
H      H      0.71720000000000     0.49830000000000     0.92160000000000
H      H      0.49720000000000     0.99430000000000     0.61680000000000
H      H      0.00280000000000     0.00570000000000     0.11680000000000
H      H      0.99720000000000     0.50570000000000     0.38320000000000
H      H      0.50280000000000     0.49430000000000     0.88320000000000
H      H      0.50410000000000     0.99400000000000     0.69750000000000
H      H      0.99590000000000     0.00600000000000     0.19750000000000
H      H      0.00410000000000     0.50600000000000     0.30250000000000
H      H      0.49590000000000     0.49400000000000     0.80250000000000
H      H      0.39450000000000     0.99600000000000     0.76740000000000
H      H      0.10550000000000     0.00400000000000     0.26740000000000
H      H      0.89450000000000     0.50400000000000     0.23260000000000
H      H      0.60550000000000     0.49600000000000     0.73260000000000
H      H      0.10010000000000     0.00170000000000     0.76460000000000
H      H      0.39990000000000     0.99830000000000     0.26460000000000
H      H      0.60010000000000     0.49830000000000     0.23540000000000
H      H      0.89990000000000     0.50170000000000     0.73540000000000
H      H      0.45410000000000     0.99470000000000     0.93720000000000
H      H      0.04590000000000     0.00530000000000     0.43720000000000
H      H      0.95410000000000     0.50530000000000     0.06280000000000
H      H      0.54590000000000     0.49470000000000     0.56280000000000
H      H      0.33840000000000     0.99690000000000     0.00830000000000
H      H      0.16160000000000     0.00310000000000     0.50830000000000
H      H      0.83840000000000     0.50310000000000     0.99170000000000
H      H      0.66160000000000     0.49690000000000     0.49170000000000
H      H      0.09480000000000     0.00160000000000     0.01060000000000
H      H      0.40520000000000     0.99840000000000     0.51060000000000
H      H      0.59480000000000     0.49840000000000     0.98940000000000
H      H      0.90520000000000     0.50160000000000     0.48940000000000
H      H      0.96710000000000     0.00400000000000     0.94180000000000
H      H      0.53290000000000     0.99600000000000     0.44180000000000
H      H      0.46710000000000     0.49600000000000     0.05820000000000
H      H      0.03290000000000     0.50400000000000     0.55820000000000
