data_default
_cell_volume          1137.368064
_symmetry_space_group_name_H-M 'P 1'
_symmetry_Int_Tables_number 1
loop_
_symmetry_equiv_pos_site_id
_symmetry_equiv_pos_as_xyz
1 x,y,z
_cell_length_a         9.6673000000
_cell_length_b         5.7173000000
_cell_length_c        28.3454000000
_cell_angle_alpha        90.0000
_cell_angle_beta       133.4499
_cell_angle_gamma        90.0000
_cell_formula_units_Z 1
loop_
_atom_site_label
_atom_site_type_symbol
_atom_site_fract_x
_atom_site_fract_y
_atom_site_fract_z
H      H      0.88289000000000     0.83516000000000     0.20863000000000
H      H      0.11711000000000     0.16484000000000     0.79137000000000
H      H      0.11711000000000     0.33516000000000     0.29137000000000
H      H      0.88289000000000     0.66484000000000     0.70863000000000
C      C      0.81434000000000     0.98973000000000     0.17832000000000
C      C      0.18566000000000     0.01027000000000     0.82168000000000
C      C      0.18566000000000     0.48973000000000     0.32168000000000
C      C      0.81434000000000     0.51027000000000     0.67832000000000
C      C      0.75011000000000     0.17229000000000     0.19224000000000
C      C      0.24989000000000     0.82771000000000     0.80776000000000
C      C      0.24989000000000     0.67229000000000     0.30776000000000
C      C      0.75011000000000     0.32771000000000     0.69224000000000
C      C      0.78583000000000     0.01641000000000     0.12362000000000
C      C      0.21417000000000     0.98359000000000     0.87638000000000
C      C      0.21417000000000     0.51641000000000     0.37638000000000
C      C      0.78583000000000     0.48359000000000     0.62362000000000
C      C      0.69770000000000     0.21455000000000     0.08410000000000
C      C      0.30230000000000     0.78545000000000     0.91590000000000
C      C      0.30230000000000     0.71455000000000     0.41590000000000
C      C      0.69770000000000     0.28545000000000     0.58410000000000
C      C      0.66182000000000     0.37080000000000     0.15265000000000
C      C      0.33818000000000     0.62920000000000     0.84735000000000
C      C      0.33818000000000     0.87080000000000     0.34735000000000
C      C      0.66182000000000     0.12920000000000     0.65265000000000
H      H      0.76945000000000     0.15890000000000     0.23463000000000
H      H      0.23055000000000     0.84110000000000     0.76537000000000
H      H      0.23055000000000     0.65890000000000     0.26537000000000
H      H      0.76945000000000     0.34110000000000     0.73463000000000
O      O      0.83393000000000     0.86677000000000     0.09873000000000
O      O      0.16607000000000     0.13323000000000     0.90127000000000
O      O      0.16607000000000     0.36677000000000     0.40127000000000
O      O      0.83393000000000     0.63323000000000     0.59873000000000
C      C      0.63372000000000     0.39582000000000     0.09733000000000
C      C      0.36628000000000     0.60418000000000     0.90267000000000
C      C      0.36628000000000     0.89582000000000     0.40267000000000
C      C      0.63372000000000     0.10418000000000     0.59733000000000
O      O      0.68889000000000     0.19291000000000     0.03370000000000
O      O      0.31111000000000     0.80709000000000     0.96630000000000
O      O      0.31111000000000     0.69291000000000     0.46630000000000
O      O      0.68889000000000     0.30709000000000     0.53370000000000
H      H      0.61397000000000     0.50850000000000     0.16488000000000
H      H      0.38603000000000     0.49150000000000     0.83512000000000
H      H      0.38603000000000     0.00850000000000     0.33512000000000
H      H      0.61397000000000     0.99150000000000     0.66488000000000
B      B      0.77347000000000     0.97741000000000     0.04326000000000
B      B      0.22653000000000     0.02259000000000     0.95674000000000
B      B      0.22653000000000     0.47741000000000     0.45674000000000
B      B      0.77347000000000     0.52259000000000     0.54326000000000
H      H      0.56553000000000     0.54878000000000     0.06630000000000
H      H      0.43447000000000     0.45122000000000     0.93370000000000
H      H      0.43447000000000     0.04878000000000     0.43370000000000
H      H      0.56553000000000     0.95122000000000     0.56630000000000
C      C      0.79710000000000     0.87538000000000     0.99918000000000
C      C      0.20290000000000     0.12462000000000     0.00082000000000
C      C      0.20290000000000     0.37538000000000     0.50082000000000
C      C      0.79710000000000     0.62462000000000     0.49918000000000
H      H      0.86522000000000     0.70609000000000     0.01166000000000
H      H      0.13478000000000     0.29391000000000     0.98834000000000
H      H      0.13478000000000     0.20609000000000     0.48834000000000
H      H      0.86522000000000     0.79391000000000     0.51166000000000
C      C      0.73617000000000     0.98914000000000     0.94591000000000
C      C      0.26383000000000     0.01086000000000     0.05409000000000
C      C      0.26383000000000     0.48914000000000     0.55409000000000
C      C      0.73617000000000     0.51086000000000     0.44591000000000
H      H      0.66873000000000     0.15800000000000     0.93498000000000
H      H      0.33127000000000     0.84200000000000     0.06502000000000
H      H      0.33127000000000     0.65800000000000     0.56502000000000
H      H      0.66873000000000     0.34200000000000     0.43498000000000
C      C      0.74903000000000     0.91358000000000     0.89958000000000
C      C      0.25097000000000     0.08642000000000     0.10042000000000
C      C      0.25097000000000     0.41358000000000     0.60042000000000
C      C      0.74903000000000     0.58642000000000     0.39958000000000
C      C      0.67558000000000     0.06083000000000     0.84700000000000
C      C      0.32442000000000     0.93917000000000     0.15300000000000
C      C      0.32442000000000     0.56083000000000     0.65300000000000
C      C      0.67558000000000     0.43917000000000     0.34700000000000
C      C      0.83161000000000     0.69993000000000     0.90507000000000
C      C      0.16839000000000     0.30007000000000     0.09493000000000
C      C      0.16839000000000     0.19993000000000     0.59493000000000
C      C      0.83161000000000     0.80007000000000     0.40507000000000
C      C      0.84003000000000     0.63697000000000     0.85970000000000
C      C      0.15997000000000     0.36303000000000     0.14030000000000
C      C      0.15997000000000     0.13697000000000     0.64030000000000
C      C      0.84003000000000     0.86303000000000     0.35970000000000
C      C      0.68393000000000     0.99795000000000     0.80151000000000
C      C      0.31607000000000     0.00205000000000     0.19849000000000
C      C      0.31607000000000     0.49795000000000     0.69849000000000
C      C      0.68393000000000     0.50205000000000     0.30151000000000
H      H      0.61154000000000     0.22592000000000     0.84208000000000
H      H      0.38846000000000     0.77408000000000     0.15792000000000
H      H      0.38846000000000     0.72592000000000     0.65792000000000
H      H      0.61154000000000     0.27408000000000     0.34208000000000
H      H      0.88945000000000     0.58270000000000     0.94506000000000
H      H      0.11055000000000     0.41730000000000     0.05494000000000
H      H      0.11055000000000     0.08270000000000     0.55494000000000
H      H      0.88945000000000     0.91730000000000     0.44506000000000
C      C      0.76628000000000     0.78555000000000     0.80770000000000
C      C      0.23372000000000     0.21445000000000     0.19230000000000
C      C      0.23372000000000     0.28555000000000     0.69230000000000
C      C      0.76628000000000     0.71445000000000     0.30770000000000
H      H      0.90417000000000     0.47174000000000     0.86475000000000
H      H      0.09583000000000     0.52826000000000     0.13525000000000
H      H      0.09583000000000     0.97174000000000     0.63525000000000
H      H      0.90417000000000     0.02826000000000     0.36475000000000
H      H      0.62638000000000     0.11434000000000     0.76139000000000
H      H      0.37362000000000     0.88566000000000     0.23861000000000
H      H      0.37362000000000     0.61434000000000     0.73861000000000
H      H      0.62638000000000     0.38566000000000     0.26139000000000
H      H      0.77312000000000     0.73585000000000     0.77244000000000
H      H      0.22688000000000     0.26415000000000     0.22756000000000
H      H      0.22688000000000     0.23585000000000     0.72756000000000
H      H      0.77312000000000     0.76415000000000     0.27244000000000
