data_default
_cell_volume          1124.411728
_symmetry_space_group_name_H-M 'P 1'
_symmetry_Int_Tables_number 1
loop_
_symmetry_equiv_pos_site_id
_symmetry_equiv_pos_as_xyz
1 x,y,z
_cell_length_a         5.8240000000
_cell_length_b         8.2380000000
_cell_length_c        23.4490000000
_cell_angle_alpha        90.0000
_cell_angle_beta        91.9130
_cell_angle_gamma        90.0000
_cell_formula_units_Z 1
loop_
_atom_site_label
_atom_site_type_symbol
_atom_site_fract_x
_atom_site_fract_y
_atom_site_fract_z
C      C      0.19483000000000     0.45320000000000     0.90930000000000
C      C      0.80517000000000     0.54680000000000     0.09070000000000
C      C      0.80517000000000     0.95320000000000     0.59070000000000
C      C      0.19483000000000     0.04680000000000     0.40930000000000
C      C      0.35210000000000     0.48005000000000     0.86979000000000
C      C      0.64790000000000     0.51995000000000     0.13021000000000
C      C      0.64790000000000     0.98005000000000     0.63021000000000
C      C      0.35210000000000     0.01995000000000     0.36979000000000
C      C      0.56055000000000     0.41021000000000     0.87461000000000
C      C      0.43945000000000     0.58979000000000     0.12539000000000
C      C      0.43945000000000     0.91021000000000     0.62539000000000
C      C      0.56055000000000     0.08979000000000     0.37461000000000
C      C      0.61377000000000     0.31257000000000     0.91886000000000
C      C      0.38623000000000     0.68743000000000     0.08114000000000
C      C      0.38623000000000     0.81257000000000     0.58114000000000
C      C      0.61377000000000     0.18743000000000     0.41886000000000
C      C      0.25016000000000     0.35566000000000     0.95309000000000
C      C      0.74984000000000     0.64434000000000     0.04691000000000
C      C      0.74984000000000     0.85566000000000     0.54691000000000
C      C      0.25016000000000     0.14434000000000     0.45309000000000
C      C      0.45587000000000     0.28642000000000     0.95751000000000
C      C      0.54413000000000     0.71358000000000     0.04249000000000
C      C      0.54413000000000     0.78642000000000     0.54249000000000
C      C      0.45587000000000     0.21358000000000     0.45751000000000
O      O      0.47414000000000     0.19172000000000     0.00441000000000
O      O      0.52586000000000     0.80828000000000     0.99559000000000
O      O      0.52586000000000     0.69172000000000     0.49559000000000
O      O      0.47414000000000     0.30828000000000     0.50441000000000
O      O      0.12092000000000     0.30989000000000     0.99708000000000
O      O      0.87908000000000     0.69011000000000     0.00292000000000
O      O      0.87908000000000     0.80989000000000     0.50292000000000
O      O      0.12092000000000     0.19011000000000     0.49708000000000
B      B      0.25989000000000     0.20323000000000     0.02789000000000
B      B      0.74011000000000     0.79677000000000     0.97211000000000
B      B      0.74011000000000     0.70323000000000     0.47211000000000
B      B      0.25989000000000     0.29677000000000     0.52789000000000
C      C      0.18861000000000     0.10541000000000     0.08118000000000
C      C      0.81139000000000     0.89459000000000     0.91882000000000
C      C      0.81139000000000     0.60541000000000     0.41882000000000
C      C      0.18861000000000     0.39459000000000     0.58118000000000
C      C      0.98294000000000     0.12395000000000     0.10447000000000
C      C      0.01706000000000     0.87605000000000     0.89553000000000
C      C      0.01706000000000     0.62395000000000     0.39553000000000
C      C      0.98294000000000     0.37605000000000     0.60447000000000
C      C      0.91073000000000     0.04783000000000     0.15161000000000
C      C      0.08927000000000     0.95217000000000     0.84839000000000
C      C      0.08927000000000     0.54783000000000     0.34839000000000
C      C      0.91073000000000     0.45217000000000     0.65161000000000
C      C      0.70137000000000     0.08339000000000     0.17107000000000
C      C      0.29863000000000     0.91661000000000     0.82893000000000
C      C      0.29863000000000     0.58339000000000     0.32893000000000
C      C      0.70137000000000     0.41661000000000     0.67107000000000
C      C      0.62309000000000     0.01215000000000     0.21804000000000
C      C      0.37691000000000     0.98785000000000     0.78196000000000
C      C      0.37691000000000     0.51215000000000     0.28196000000000
C      C      0.62309000000000     0.48785000000000     0.71804000000000
C      C      0.75038000000000     0.90036000000000     0.24578000000000
C      C      0.24962000000000     0.09964000000000     0.75422000000000
C      C      0.24962000000000     0.40036000000000     0.25422000000000
C      C      0.75038000000000     0.59964000000000     0.74578000000000
C      C      0.95773000000000     0.86187000000000     0.22702000000000
C      C      0.04227000000000     0.13813000000000     0.77298000000000
C      C      0.04227000000000     0.36187000000000     0.27298000000000
C      C      0.95773000000000     0.63813000000000     0.72702000000000
C      C      0.03595000000000     0.93461000000000     0.18035000000000
C      C      0.96405000000000     0.06539000000000     0.81965000000000
C      C      0.96405000000000     0.43461000000000     0.31965000000000
C      C      0.03595000000000     0.56539000000000     0.68035000000000
H      H      0.02289000000000     0.50897000000000     0.90548000000000
H      H      0.97711000000000     0.49103000000000     0.09452000000000
H      H      0.97711000000000     0.00897000000000     0.59452000000000
H      H      0.02289000000000     0.99103000000000     0.40548000000000
H      H      0.30814000000000     0.55822000000000     0.83278000000000
H      H      0.69186000000000     0.44178000000000     0.16722000000000
H      H      0.69186000000000     0.05822000000000     0.66722000000000
H      H      0.30814000000000     0.94178000000000     0.33278000000000
H      H      0.68845000000000     0.43145000000000     0.84178000000000
H      H      0.31155000000000     0.56855000000000     0.15822000000000
H      H      0.31155000000000     0.93145000000000     0.65822000000000
H      H      0.68845000000000     0.06855000000000     0.34178000000000
H      H      0.78343000000000     0.25374000000000     0.92290000000000
H      H      0.21657000000000     0.74626000000000     0.07710000000000
H      H      0.21657000000000     0.75374000000000     0.57710000000000
H      H      0.78343000000000     0.24626000000000     0.42290000000000
H      H      0.31796000000000     0.02254000000000     0.10013000000000
H      H      0.68204000000000     0.97746000000000     0.89987000000000
H      H      0.68204000000000     0.52254000000000     0.39987000000000
H      H      0.31796000000000     0.47746000000000     0.60013000000000
H      H      0.86495000000000     0.21126000000000     0.08323000000000
H      H      0.13505000000000     0.78874000000000     0.91677000000000
H      H      0.13505000000000     0.71126000000000     0.41677000000000
H      H      0.86495000000000     0.28874000000000     0.58323000000000
H      H      0.59178000000000     0.17453000000000     0.14895000000000
H      H      0.40822000000000     0.82547000000000     0.85105000000000
H      H      0.40822000000000     0.67453000000000     0.35105000000000
H      H      0.59178000000000     0.32547000000000     0.64895000000000
H      H      0.45260000000000     0.04496000000000     0.23370000000000
H      H      0.54740000000000     0.95504000000000     0.76630000000000
H      H      0.54740000000000     0.54496000000000     0.26630000000000
H      H      0.45260000000000     0.45504000000000     0.73370000000000
H      H      0.68549000000000     0.83994000000000     0.28406000000000
H      H      0.31451000000000     0.16006000000000     0.71594000000000
H      H      0.31451000000000     0.33994000000000     0.21594000000000
H      H      0.68549000000000     0.66006000000000     0.78406000000000
H      H      0.06348000000000     0.76971000000000     0.24959000000000
H      H      0.93652000000000     0.23029000000000     0.75041000000000
H      H      0.93652000000000     0.26971000000000     0.25041000000000
H      H      0.06348000000000     0.73029000000000     0.74959000000000
H      H      0.20710000000000     0.89815000000000     0.16651000000000
H      H      0.79290000000000     0.10185000000000     0.83349000000000
H      H      0.79290000000000     0.39815000000000     0.33349000000000
H      H      0.20710000000000     0.60185000000000     0.66651000000000
