data_default
_cell_volume          2220.001244
_symmetry_space_group_name_H-M 'P 1'
_symmetry_Int_Tables_number 1
loop_
_symmetry_equiv_pos_site_id
_symmetry_equiv_pos_as_xyz
1 x,y,z
_cell_length_a        23.6028100000
_cell_length_b         6.5706300000
_cell_length_c        16.3554000000
_cell_angle_alpha        90.0000
_cell_angle_beta        61.0720
_cell_angle_gamma        90.0000
_cell_formula_units_Z 1
loop_
_atom_site_label
_atom_site_type_symbol
_atom_site_fract_x
_atom_site_fract_y
_atom_site_fract_z
C      C      0.81582600000000     0.29101800000000     0.01524200000000
C      C      0.31582600000000     0.79101800000000     0.01524200000000
C      C      0.18417400000000     0.70898200000000     0.98475800000000
C      C      0.68417400000000     0.20898200000000     0.98475800000000
C      C      0.18417400000000     0.29101800000000     0.48475800000000
C      C      0.68417400000000     0.79101800000000     0.48475800000000
C      C      0.81582600000000     0.70898200000000     0.51524200000000
C      C      0.31582600000000     0.20898200000000     0.51524200000000
C      C      0.84103000000000     0.44897000000000     0.94910300000000
C      C      0.34103000000000     0.94897000000000     0.94910300000000
C      C      0.15897000000000     0.55103000000000     0.05089700000000
C      C      0.65897000000000     0.05103000000000     0.05089700000000
C      C      0.15897000000000     0.44897000000000     0.55089700000000
C      C      0.65897000000000     0.94897000000000     0.55089700000000
C      C      0.84103000000000     0.55103000000000     0.44910300000000
C      C      0.34103000000000     0.05103000000000     0.44910300000000
C      C      0.90668900000000     0.45650200000000     0.88391700000000
C      C      0.40668900000000     0.95650200000000     0.88391700000000
C      C      0.09331100000000     0.54349800000000     0.11608300000000
C      C      0.59331100000000     0.04349800000000     0.11608300000000
C      C      0.09331100000000     0.45650200000000     0.61608300000000
C      C      0.59331100000000     0.95650200000000     0.61608300000000
C      C      0.90668900000000     0.54349800000000     0.38391700000000
C      C      0.40668900000000     0.04349800000000     0.38391700000000
C      C      0.94963500000000     0.30608600000000     0.88213700000000
C      C      0.44963500000000     0.80608600000000     0.88213700000000
C      C      0.05036500000000     0.69391400000000     0.11786300000000
C      C      0.55036500000000     0.19391400000000     0.11786300000000
C      C      0.05036500000000     0.30608600000000     0.61786300000000
C      C      0.55036500000000     0.80608600000000     0.61786300000000
C      C      0.94963500000000     0.69391400000000     0.38213700000000
C      C      0.44963500000000     0.19391400000000     0.38213700000000
C      C      0.85857600000000     0.14532200000000     0.01269600000000
C      C      0.35857600000000     0.64532200000000     0.01269600000000
C      C      0.14142400000000     0.85467800000000     0.98730400000000
C      C      0.64142400000000     0.35467800000000     0.98730400000000
C      C      0.14142400000000     0.14532200000000     0.48730400000000
C      C      0.64142400000000     0.64532200000000     0.48730400000000
C      C      0.85857600000000     0.85467800000000     0.51269600000000
C      C      0.35857600000000     0.35467800000000     0.51269600000000
C      C      0.92414100000000     0.15231900000000     0.94747700000000
C      C      0.42414100000000     0.65231900000000     0.94747700000000
C      C      0.07585900000000     0.84768100000000     0.05252300000000
C      C      0.57585900000000     0.34768100000000     0.05252300000000
C      C      0.07585900000000     0.15231900000000     0.55252300000000
C      C      0.57585900000000     0.65231900000000     0.55252300000000
C      C      0.92414100000000     0.84768100000000     0.44747700000000
C      C      0.42414100000000     0.34768100000000     0.44747700000000
O      O      0.95426500000000     0.99019700000000     0.96104100000000
O      O      0.45426500000000     0.49019700000000     0.96104100000000
O      O      0.04573500000000     0.00980300000000     0.03895900000000
O      O      0.54573500000000     0.50980300000000     0.03895900000000
O      O      0.04573500000000     0.99019700000000     0.53895900000000
O      O      0.54573500000000     0.49019700000000     0.53895900000000
O      O      0.95426500000000     0.00980300000000     0.46104100000000
O      O      0.45426500000000     0.50980300000000     0.46104100000000
O      O      0.84698400000000     0.97953900000000     0.06787200000000
O      O      0.34698400000000     0.47953900000000     0.06787200000000
O      O      0.15301600000000     0.02046100000000     0.93212800000000
O      O      0.65301600000000     0.52046100000000     0.93212800000000
O      O      0.15301600000000     0.97953900000000     0.43212800000000
O      O      0.65301600000000     0.47953900000000     0.43212800000000
O      O      0.84698400000000     0.02046100000000     0.56787200000000
O      O      0.34698400000000     0.52046100000000     0.56787200000000
B      B      0.90634000000000     0.88645200000000     0.03565800000000
B      B      0.40634000000000     0.38645200000000     0.03565800000000
B      B      0.09366000000000     0.11354800000000     0.96434200000000
B      B      0.59366000000000     0.61354800000000     0.96434200000000
B      B      0.09366000000000     0.88645200000000     0.46434200000000
B      B      0.59366000000000     0.38645200000000     0.46434200000000
B      B      0.90634000000000     0.11354800000000     0.53565800000000
B      B      0.40634000000000     0.61354800000000     0.53565800000000
C      C      0.91682300000000     0.68953300000000     0.07748900000000
C      C      0.41682300000000     0.18953300000000     0.07748900000000
C      C      0.08317700000000     0.31046700000000     0.92251100000000
C      C      0.58317700000000     0.81046700000000     0.92251100000000
C      C      0.08317700000000     0.68953300000000     0.42251100000000
C      C      0.58317700000000     0.18953300000000     0.42251100000000
C      C      0.91682300000000     0.31046700000000     0.57748900000000
C      C      0.41682300000000     0.81046700000000     0.57748900000000
C      C      0.86725900000000     0.59868500000000     0.14962600000000
C      C      0.36725900000000     0.09868500000000     0.14962600000000
C      C      0.13274100000000     0.40131500000000     0.85037400000000
C      C      0.63274100000000     0.90131500000000     0.85037400000000
C      C      0.13274100000000     0.59868500000000     0.35037400000000
C      C      0.63274100000000     0.09868500000000     0.35037400000000
C      C      0.86725900000000     0.40131500000000     0.64962600000000
C      C      0.36725900000000     0.90131500000000     0.64962600000000
C      C      0.86497100000000     0.40913900000000     0.19986100000000
C      C      0.36497100000000     0.90913900000000     0.19986100000000
C      C      0.13502900000000     0.59086100000000     0.80013900000000
C      C      0.63502900000000     0.09086100000000     0.80013900000000
C      C      0.13502900000000     0.40913900000000     0.30013900000000
C      C      0.63502900000000     0.90913900000000     0.30013900000000
C      C      0.86497100000000     0.59086100000000     0.69986100000000
C      C      0.36497100000000     0.09086100000000     0.69986100000000
C      C      0.80504300000000     0.34903300000000     0.27346400000000
C      C      0.30504300000000     0.84903300000000     0.27346400000000
C      C      0.19495700000000     0.65096700000000     0.72653600000000
C      C      0.69495700000000     0.15096700000000     0.72653600000000
C      C      0.19495700000000     0.34903300000000     0.22653600000000
C      C      0.69495700000000     0.84903300000000     0.22653600000000
C      C      0.80504300000000     0.65096700000000     0.77346400000000
C      C      0.30504300000000     0.15096700000000     0.77346400000000
C      C      0.79902400000000     0.17095800000000     0.32380100000000
C      C      0.29902400000000     0.67095800000000     0.32380100000000
C      C      0.20097600000000     0.82904200000000     0.67619900000000
C      C      0.70097600000000     0.32904200000000     0.67619900000000
C      C      0.20097600000000     0.17095800000000     0.17619900000000
C      C      0.70097600000000     0.67095800000000     0.17619900000000
C      C      0.79902400000000     0.82904200000000     0.82380100000000
C      C      0.29902400000000     0.32904200000000     0.82380100000000
C      C      0.85340400000000     0.05021800000000     0.30087400000000
C      C      0.35340400000000     0.55021800000000     0.30087400000000
C      C      0.14659600000000     0.94978200000000     0.69912600000000
C      C      0.64659600000000     0.44978200000000     0.69912600000000
C      C      0.14659600000000     0.05021800000000     0.19912600000000
C      C      0.64659600000000     0.55021800000000     0.19912600000000
C      C      0.85340400000000     0.94978200000000     0.80087400000000
C      C      0.35340400000000     0.44978200000000     0.80087400000000
C      C      0.91355500000000     0.10872100000000     0.22776300000000
C      C      0.41355500000000     0.60872100000000     0.22776300000000
C      C      0.08644500000000     0.89127900000000     0.77223700000000
C      C      0.58644500000000     0.39127900000000     0.77223700000000
C      C      0.08644500000000     0.10872100000000     0.27223700000000
C      C      0.58644500000000     0.60872100000000     0.27223700000000
C      C      0.91355500000000     0.89127900000000     0.72776300000000
C      C      0.41355500000000     0.39127900000000     0.72776300000000
C      C      0.91910200000000     0.28695700000000     0.17764200000000
C      C      0.41910200000000     0.78695700000000     0.17764200000000
C      C      0.08089800000000     0.71304300000000     0.82235800000000
C      C      0.58089800000000     0.21304300000000     0.82235800000000
C      C      0.08089800000000     0.28695700000000     0.32235800000000
C      C      0.58089800000000     0.78695700000000     0.32235800000000
C      C      0.91910200000000     0.71304300000000     0.67764200000000
C      C      0.41910200000000     0.21304300000000     0.67764200000000
H      H      0.76520200000000     0.28179900000000     0.06662500000000
H      H      0.26520200000000     0.78179900000000     0.06662500000000
H      H      0.23479800000000     0.71820100000000     0.93337500000000
H      H      0.73479800000000     0.21820100000000     0.93337500000000
H      H      0.23479800000000     0.28179900000000     0.43337500000000
H      H      0.73479800000000     0.78179900000000     0.43337500000000
H      H      0.76520200000000     0.71820100000000     0.56662500000000
H      H      0.26520200000000     0.21820100000000     0.56662500000000
H      H      0.80876200000000     0.56605200000000     0.94929300000000
H      H      0.30876200000000     0.06605200000000     0.94929300000000
H      H      0.19123800000000     0.43394800000000     0.05070700000000
H      H      0.69123800000000     0.93394800000000     0.05070700000000
H      H      0.19123800000000     0.56605200000000     0.55070700000000
H      H      0.69123800000000     0.06605200000000     0.55070700000000
H      H      0.80876200000000     0.43394800000000     0.44929300000000
H      H      0.30876200000000     0.93394800000000     0.44929300000000
H      H      0.92522300000000     0.57950700000000     0.83384900000000
H      H      0.42522300000000     0.07950700000000     0.83384900000000
H      H      0.07477700000000     0.42049300000000     0.16615100000000
H      H      0.57477700000000     0.92049300000000     0.16615100000000
H      H      0.07477700000000     0.57950700000000     0.66615100000000
H      H      0.57477700000000     0.07950700000000     0.66615100000000
H      H      0.92522300000000     0.42049300000000     0.33384900000000
H      H      0.42522300000000     0.92049300000000     0.33384900000000
H      H      0.00069300000000     0.30957900000000     0.83224200000000
H      H      0.50069300000000     0.80957900000000     0.83224200000000
H      H      0.99930700000000     0.69042100000000     0.16775800000000
H      H      0.49930700000000     0.19042100000000     0.16775800000000
H      H      0.99930700000000     0.30957900000000     0.66775800000000
H      H      0.49930700000000     0.80957900000000     0.66775800000000
H      H      0.00069300000000     0.69042100000000     0.33224200000000
H      H      0.50069300000000     0.19042100000000     0.33224200000000
H      H      0.96510500000000     0.62783000000000     0.04617800000000
H      H      0.46510500000000     0.12783000000000     0.04617800000000
H      H      0.03489500000000     0.37217000000000     0.95382200000000
H      H      0.53489500000000     0.87217000000000     0.95382200000000
H      H      0.03489500000000     0.62783000000000     0.45382200000000
H      H      0.53489500000000     0.12783000000000     0.45382200000000
H      H      0.96510500000000     0.37217000000000     0.54617800000000
H      H      0.46510500000000     0.87217000000000     0.54617800000000
H      H      0.82069800000000     0.67217000000000     0.17670400000000
H      H      0.32069800000000     0.17217000000000     0.17670400000000
H      H      0.17930200000000     0.32783000000000     0.82329600000000
H      H      0.67930200000000     0.82783000000000     0.82329600000000
H      H      0.17930200000000     0.67217000000000     0.32329600000000
H      H      0.67930200000000     0.17217000000000     0.32329600000000
H      H      0.82069800000000     0.32783000000000     0.67670400000000
H      H      0.32069800000000     0.82783000000000     0.67670400000000
H      H      0.76285500000000     0.44196000000000     0.29133300000000
H      H      0.26285500000000     0.94196000000000     0.29133300000000
H      H      0.23714500000000     0.55804000000000     0.70866700000000
H      H      0.73714500000000     0.05804000000000     0.70866700000000
H      H      0.23714500000000     0.44196000000000     0.20866700000000
H      H      0.73714500000000     0.94196000000000     0.20866700000000
H      H      0.76285500000000     0.55804000000000     0.79133300000000
H      H      0.26285500000000     0.05804000000000     0.79133300000000
H      H      0.75228800000000     0.12769100000000     0.38027000000000
H      H      0.25228800000000     0.62769100000000     0.38027000000000
H      H      0.24771200000000     0.87230900000000     0.61973000000000
H      H      0.74771200000000     0.37230900000000     0.61973000000000
H      H      0.24771200000000     0.12769100000000     0.11973000000000
H      H      0.74771200000000     0.62769100000000     0.11973000000000
H      H      0.75228800000000     0.87230900000000     0.88027000000000
H      H      0.25228800000000     0.37230900000000     0.88027000000000
H      H      0.84912200000000     0.91202300000000     0.33928400000000
H      H      0.34912200000000     0.41202300000000     0.33928400000000
H      H      0.15087800000000     0.08797700000000     0.66071600000000
H      H      0.65087800000000     0.58797700000000     0.66071600000000
H      H      0.15087800000000     0.91202300000000     0.16071600000000
H      H      0.65087800000000     0.41202300000000     0.16071600000000
H      H      0.84912200000000     0.08797700000000     0.83928400000000
H      H      0.34912200000000     0.58797700000000     0.83928400000000
H      H      0.95576100000000     0.01619500000000     0.20973500000000
H      H      0.45576100000000     0.51619500000000     0.20973500000000
H      H      0.04423900000000     0.98380500000000     0.79026500000000
H      H      0.54423900000000     0.48380500000000     0.79026500000000
H      H      0.04423900000000     0.01619500000000     0.29026500000000
H      H      0.54423900000000     0.51619500000000     0.29026500000000
H      H      0.95576100000000     0.98380500000000     0.70973500000000
H      H      0.45576100000000     0.48380500000000     0.70973500000000
H      H      0.96598100000000     0.32888000000000     0.12112500000000
H      H      0.46598100000000     0.82888000000000     0.12112500000000
H      H      0.03401900000000     0.67112000000000     0.87887500000000
H      H      0.53401900000000     0.17112000000000     0.87887500000000
H      H      0.03401900000000     0.32888000000000     0.37887500000000
H      H      0.53401900000000     0.82888000000000     0.37887500000000
H      H      0.96598100000000     0.67112000000000     0.62112500000000
H      H      0.46598100000000     0.17112000000000     0.62112500000000
