data_default
_cell_volume          1104.143154
_symmetry_space_group_name_H-M 'P 1'
_symmetry_Int_Tables_number 1
loop_
_symmetry_equiv_pos_site_id
_symmetry_equiv_pos_as_xyz
1 x,y,z
_cell_length_a        11.7687000000
_cell_length_b         4.4073000000
_cell_length_c        21.3536000000
_cell_angle_alpha        90.0000
_cell_angle_beta        85.4900
_cell_angle_gamma        90.0000
_cell_formula_units_Z 1
loop_
_atom_site_label
_atom_site_type_symbol
_atom_site_fract_x
_atom_site_fract_y
_atom_site_fract_z
H      H      0.71539000000000     0.20044000000000     0.73186000000000
H      H      0.28461000000000     0.79956000000000     0.26814000000000
H      H      0.28461000000000     0.70044000000000     0.76814000000000
H      H      0.71539000000000     0.29956000000000     0.23186000000000
H      H      0.79811000000000     0.86761000000000     0.65487000000000
H      H      0.20189000000000     0.13239000000000     0.34513000000000
H      H      0.20189000000000     0.36761000000000     0.84513000000000
H      H      0.79811000000000     0.63239000000000     0.15487000000000
H      H      0.74845000000000     0.87897000000000     0.29239000000000
H      H      0.25155000000000     0.12103000000000     0.70761000000000
H      H      0.25155000000000     0.37897000000000     0.20761000000000
H      H      0.74845000000000     0.62103000000000     0.79239000000000
C      C      0.67390000000000     0.14861000000000     0.69529000000000
C      C      0.32610000000000     0.85139000000000     0.30471000000000
C      C      0.32610000000000     0.64861000000000     0.80471000000000
C      C      0.67390000000000     0.35139000000000     0.19529000000000
H      H      0.60742000000000     0.62723000000000     0.48588000000000
H      H      0.39258000000000     0.37277000000000     0.51412000000000
H      H      0.39258000000000     0.12723000000000     0.01412000000000
H      H      0.60742000000000     0.87277000000000     0.98588000000000
C      C      0.72242000000000     0.95294000000000     0.64998000000000
C      C      0.27758000000000     0.04706000000000     0.35002000000000
C      C      0.27758000000000     0.45294000000000     0.85002000000000
C      C      0.72242000000000     0.54706000000000     0.14998000000000
O      O      0.71751000000000     0.22905000000000     0.39880000000000
O      O      0.28249000000000     0.77095000000000     0.60120000000000
O      O      0.28249000000000     0.72905000000000     0.10120000000000
O      O      0.71751000000000     0.27095000000000     0.89880000000000
C      C      0.81038000000000     0.87909000000000     0.32051000000000
C      C      0.18962000000000     0.12091000000000     0.67949000000000
C      C      0.18962000000000     0.37909000000000     0.17949000000000
C      C      0.81038000000000     0.62091000000000     0.82051000000000
H      H      0.91811000000000     0.58773000000000     0.26911000000000
H      H      0.08189000000000     0.41227000000000     0.73089000000000
H      H      0.08189000000000     0.08773000000000     0.23089000000000
H      H      0.91811000000000     0.91227000000000     0.76911000000000
C      C      0.80336000000000     0.04610000000000     0.37478000000000
C      C      0.19664000000000     0.95390000000000     0.62522000000000
C      C      0.19664000000000     0.54610000000000     0.12522000000000
C      C      0.80336000000000     0.45390000000000     0.87478000000000
C      C      0.68242000000000     0.56351000000000     0.49796000000000
C      C      0.31758000000000     0.43649000000000     0.50204000000000
C      C      0.31758000000000     0.06351000000000     0.00204000000000
C      C      0.68242000000000     0.93649000000000     0.99796000000000
H      H      0.53243000000000     0.40868000000000     0.72071000000000
H      H      0.46757000000000     0.59132000000000     0.27929000000000
H      H      0.46757000000000     0.90868000000000     0.77929000000000
H      H      0.53243000000000     0.09132000000000     0.22071000000000
C      C      0.90975000000000     0.71029000000000     0.30749000000000
C      C      0.09025000000000     0.28971000000000     0.69251000000000
C      C      0.09025000000000     0.21029000000000     0.19251000000000
C      C      0.90975000000000     0.78971000000000     0.80749000000000
B      B      0.75279000000000     0.34341000000000     0.45414000000000
B      B      0.24721000000000     0.65659000000000     0.54586000000000
B      B      0.24721000000000     0.84341000000000     0.04586000000000
B      B      0.75279000000000     0.15659000000000     0.95414000000000
C      C      0.56713000000000     0.27015000000000     0.68879000000000
C      C      0.43287000000000     0.72985000000000     0.31121000000000
C      C      0.43287000000000     0.77015000000000     0.81121000000000
C      C      0.56713000000000     0.22985000000000     0.18879000000000
C      C      0.66547000000000     0.87532000000000     0.59755000000000
C      C      0.33453000000000     0.12468000000000     0.40245000000000
C      C      0.33453000000000     0.37532000000000     0.90245000000000
C      C      0.66547000000000     0.62468000000000     0.09755000000000
C      C      0.72163000000000     0.66566000000000     0.55088000000000
C      C      0.27837000000000     0.33434000000000     0.44912000000000
C      C      0.27837000000000     0.16566000000000     0.94912000000000
C      C      0.72163000000000     0.83434000000000     0.05088000000000
C      C      0.89009000000000     0.04850000000000     0.41493000000000
C      C      0.10991000000000     0.95150000000000     0.58507000000000
C      C      0.10991000000000     0.54850000000000     0.08507000000000
C      C      0.89009000000000     0.45150000000000     0.91493000000000
O      O      0.85950000000000     0.23300000000000     0.46454000000000
O      O      0.14050000000000     0.76700000000000     0.53546000000000
O      O      0.14050000000000     0.73300000000000     0.03546000000000
O      O      0.85950000000000     0.26700000000000     0.96454000000000
C      C      0.99655000000000     0.71271000000000     0.34767000000000
C      C      0.00345000000000     0.28729000000000     0.65233000000000
C      C      0.00345000000000     0.21271000000000     0.15233000000000
C      C      0.99655000000000     0.78729000000000     0.84767000000000
H      H      0.79705000000000     0.59617000000000     0.56116000000000
H      H      0.20295000000000     0.40383000000000     0.43884000000000
H      H      0.20295000000000     0.09617000000000     0.93884000000000
H      H      0.79705000000000     0.90383000000000     0.06116000000000
C      C      0.98813000000000     0.88404000000000     0.40280000000000
C      C      0.01187000000000     0.11596000000000     0.59720000000000
C      C      0.01187000000000     0.38404000000000     0.09720000000000
C      C      0.98813000000000     0.61596000000000     0.90280000000000
H      H      0.06535000000000     0.59183000000000     0.33727000000000
H      H      0.93465000000000     0.40817000000000     0.66273000000000
H      H      0.93465000000000     0.09183000000000     0.16273000000000
H      H      0.06535000000000     0.90817000000000     0.83727000000000
C      C      0.50926000000000     0.19488000000000     0.63676000000000
C      C      0.49074000000000     0.80512000000000     0.36324000000000
C      C      0.49074000000000     0.69488000000000     0.86324000000000
C      C      0.50926000000000     0.30512000000000     0.13676000000000
C      C      0.55778000000000     0.99981000000000     0.59165000000000
C      C      0.44222000000000     0.00019000000000     0.40835000000000
C      C      0.44222000000000     0.49981000000000     0.90835000000000
C      C      0.55778000000000     0.50019000000000     0.09165000000000
H      H      0.04906000000000     0.88729000000000     0.43154000000000
H      H      0.95094000000000     0.11271000000000     0.56846000000000
H      H      0.95094000000000     0.38729000000000     0.06846000000000
H      H      0.04906000000000     0.61271000000000     0.93154000000000
H      H      0.43358000000000     0.28039000000000     0.63193000000000
H      H      0.56642000000000     0.71961000000000     0.36807000000000
H      H      0.56642000000000     0.78039000000000     0.86807000000000
H      H      0.43358000000000     0.21961000000000     0.13193000000000
H      H      0.51563000000000     0.94934000000000     0.55525000000000
H      H      0.48437000000000     0.05066000000000     0.44475000000000
H      H      0.48437000000000     0.44934000000000     0.94475000000000
H      H      0.51563000000000     0.55066000000000     0.05525000000000
