data_stdin
_cell_volume           279.550201
_symmetry_space_group_name_H-M 'P 1'
_symmetry_Int_Tables_number 1
loop_
_symmetry_equiv_pos_site_id
_symmetry_equiv_pos_as_xyz
1 x,y,z
_cell_length_a         6.6500000000
_cell_length_b         6.2100000000
_cell_length_c         6.8700000000
_cell_angle_alpha        90.0000
_cell_angle_beta        99.8200
_cell_angle_gamma        90.0000
_cell_formula_units_Z 1
loop_
_atom_site_label
_atom_site_type_symbol
_atom_site_fract_x
_atom_site_fract_y
_atom_site_fract_z
c      C      0.42730000000000     0.17450000000000     0.44660000000000
c      C      0.57270000000000     0.67450000000000     0.55340000000000
c      C      0.51680000000000     0.17400000000000     0.25640000000000
c      C      0.48320000000000     0.67400000000000     0.74360000000000
c      C      0.35590000000000     0.22260000000000     0.07240000000000
c      C      0.64410000000000     0.72260000000000     0.92760000000000
c      C      0.17320000000000     0.07730000000000     0.06010000000000
c      C      0.82680000000000     0.57730000000000     0.93990000000000
c      C      0.10030000000000     0.02980000000000     0.25410000000000
c      C      0.89970000000000     0.52980000000000     0.74590000000000
c      C      0.19790000000000     0.17730000000000     0.42280000000000
c      C      0.80210000000000     0.67730000000000     0.57720000000000
h      H      0.64100000000000     0.28770000000000     0.26800000000000
h      H      0.35900000000000     0.78770000000000     0.73200000000000
h      H      0.58600000000000     0.01340000000000     0.23700000000000
h      H      0.41400000000000     0.51340000000000     0.76300000000000
h      H      0.30700000000000     0.38700000000000     0.07900000000000
h      H      0.69300000000000     0.88700000000000     0.92100000000000
h      H      0.42100000000000     0.20500000000000     0.93900000000000
h      H      0.57900000000000     0.70500000000000     0.06100000000000
h      H      0.13900000000000     0.86100000000000     0.29800000000000
h      H      0.86100000000000     0.36100000000000     0.70200000000000
h      H      0.93800000000000     0.03600000000000     0.23700000000000
h      H      0.06200000000000     0.53600000000000     0.76300000000000
h      H      0.14400000000000     0.33700000000000     0.38900000000000
h      H      0.85600000000000     0.83700000000000     0.61100000000000
h      H      0.14900000000000     0.12700000000000     0.55800000000000
h      H      0.85100000000000     0.62700000000000     0.44200000000000
o      O      0.53840000000000     0.17200000000000     0.60620000000000
o      O      0.46160000000000     0.67200000000000     0.39380000000000
o      O      0.08980000000000     0.00000000000000     0.90590000000000
o      O      0.91020000000000     0.50000000000000     0.09410000000000
