data_stdin
_cell_volume           297.269491
_symmetry_space_group_name_H-M 'P 1'
_symmetry_Int_Tables_number 1
loop_
_symmetry_equiv_pos_site_id
_symmetry_equiv_pos_as_xyz
1 x,y,z
_cell_length_a        13.1510000000
_cell_length_b         3.9230000000
_cell_length_c         5.7620000000
_cell_angle_alpha        90.0000
_cell_angle_beta        90.0000
_cell_angle_gamma        90.0000
_cell_formula_units_Z 1
loop_
_atom_site_label
_atom_site_type_symbol
_atom_site_fract_x
_atom_site_fract_y
_atom_site_fract_z
o      O      0.37352000000000     0.88850000000000     0.00000000000000
o      O      0.87352000000000     0.61150000000000     0.00000000000000
o      O      0.12648000000000     0.38850000000000     0.50000000000000
o      O      0.62648000000000     0.11150000000000     0.50000000000000
h      H      0.32300000000000     0.94100000000000     0.92100000000000
h      H      0.82300000000000     0.55900000000000     0.92100000000000
h      H      0.17700000000000     0.44100000000000     0.42100000000000
h      H      0.67700000000000     0.05900000000000     0.42100000000000
o      O      0.24694000000000     0.61090000000000     0.17020000000000
o      O      0.74694000000000     0.88910000000000     0.17020000000000
o      O      0.25306000000000     0.11090000000000     0.67020000000000
o      O      0.75306000000000     0.38910000000000     0.67020000000000
c      C      0.33529000000000     0.70200000000000     0.16970000000000
c      C      0.83529000000000     0.79800000000000     0.16970000000000
c      C      0.16471000000000     0.20200000000000     0.66970000000000
c      C      0.66471000000000     0.29800000000000     0.66970000000000
c      C      0.41068000000000     0.61600000000000     0.35370000000000
c      C      0.91068000000000     0.88400000000000     0.35370000000000
c      C      0.08932000000000     0.11600000000000     0.85370000000000
c      C      0.58932000000000     0.38400000000000     0.85370000000000
h      H      0.37700000000000     0.50300000000000     0.48200000000000
h      H      0.87700000000000     0.99700000000000     0.48200000000000
h      H      0.12300000000000     0.00300000000000     0.98200000000000
h      H      0.62300000000000     0.49700000000000     0.98200000000000
h      H      0.46500000000000     0.50200000000000     0.29800000000000
h      H      0.96500000000000     0.99800000000000     0.29800000000000
h      H      0.03500000000000     0.00200000000000     0.79800000000000
h      H      0.53500000000000     0.49800000000000     0.79800000000000
h      H      0.44200000000000     0.82300000000000     0.42100000000000
h      H      0.94200000000000     0.67700000000000     0.42100000000000
h      H      0.05800000000000     0.32300000000000     0.92100000000000
h      H      0.55800000000000     0.17700000000000     0.92100000000000
