data_stdin
_cell_volume           474.069978
_symmetry_space_group_name_H-M 'P 1'
_symmetry_Int_Tables_number 1
loop_
_symmetry_equiv_pos_site_id
_symmetry_equiv_pos_as_xyz
1 x,y,z
_cell_length_a         7.3900000000
_cell_length_b         9.4200000000
_cell_length_c         6.8100000000
_cell_angle_alpha        90.0000
_cell_angle_beta        90.0000
_cell_angle_gamma        90.0000
_cell_formula_units_Z 1
loop_
_atom_site_label
_atom_site_type_symbol
_atom_site_fract_x
_atom_site_fract_y
_atom_site_fract_z
c      C      0.93930000000000     0.13930000000000     0.99310000000000
c      C      0.06070000000000     0.86070000000000     0.00690000000000
c      C      0.43930000000000     0.13930000000000     0.50690000000000
c      C      0.93930000000000     0.36070000000000     0.49310000000000
c      C      0.43930000000000     0.36070000000000     0.00690000000000
c      C      0.56070000000000     0.63930000000000     0.99310000000000
c      C      0.06070000000000     0.63930000000000     0.50690000000000
c      C      0.56070000000000     0.86070000000000     0.49310000000000
c      C      0.86230000000000     0.04470000000000     0.12600000000000
c      C      0.13770000000000     0.95530000000000     0.87400000000000
c      C      0.36230000000000     0.04470000000000     0.37400000000000
c      C      0.86230000000000     0.45530000000000     0.62600000000000
c      C      0.36230000000000     0.45530000000000     0.87400000000000
c      C      0.63770000000000     0.54470000000000     0.12600000000000
c      C      0.13770000000000     0.54470000000000     0.37400000000000
c      C      0.63770000000000     0.95530000000000     0.62600000000000
c      C      0.07700000000000     0.09580000000000     0.86750000000000
c      C      0.92300000000000     0.90420000000000     0.13250000000000
c      C      0.57700000000000     0.09580000000000     0.63250000000000
c      C      0.07700000000000     0.40420000000000     0.36750000000000
c      C      0.57700000000000     0.40420000000000     0.13250000000000
c      C      0.42300000000000     0.59580000000000     0.86750000000000
c      C      0.92300000000000     0.59580000000000     0.63250000000000
c      C      0.42300000000000     0.90420000000000     0.36750000000000
h      H      0.89540000000000     0.25020000000000     0.98770000000000
h      H      0.10460000000000     0.74980000000000     0.01230000000000
h      H      0.39540000000000     0.25020000000000     0.51230000000000
h      H      0.89540000000000     0.24980000000000     0.48770000000000
h      H      0.39540000000000     0.24980000000000     0.01230000000000
h      H      0.60460000000000     0.75020000000000     0.98770000000000
h      H      0.10460000000000     0.75020000000000     0.51230000000000
h      H      0.60460000000000     0.74980000000000     0.48770000000000
h      H      0.75420000000000     0.07810000000000     0.22410000000000
h      H      0.24580000000000     0.92190000000000     0.77590000000000
h      H      0.25420000000000     0.07810000000000     0.27590000000000
h      H      0.75420000000000     0.42190000000000     0.72410000000000
h      H      0.25420000000000     0.42190000000000     0.77590000000000
h      H      0.74580000000000     0.57810000000000     0.22410000000000
h      H      0.24580000000000     0.57810000000000     0.27590000000000
h      H      0.74580000000000     0.92190000000000     0.72410000000000
h      H      0.13710000000000     0.16810000000000     0.76400000000000
h      H      0.86290000000000     0.83190000000000     0.23600000000000
h      H      0.63710000000000     0.16810000000000     0.73600000000000
h      H      0.13710000000000     0.33190000000000     0.26400000000000
h      H      0.63710000000000     0.33190000000000     0.23600000000000
h      H      0.36290000000000     0.66810000000000     0.76400000000000
h      H      0.86290000000000     0.66810000000000     0.73600000000000
h      H      0.36290000000000     0.83190000000000     0.26400000000000
