data_stdin
_cell_volume           415.654022
_symmetry_space_group_name_H-M 'P 1'
_symmetry_Int_Tables_number 1
loop_
_symmetry_equiv_pos_site_id
_symmetry_equiv_pos_as_xyz
1 x,y,z
_cell_length_a         6.8560000000
_cell_length_b         6.6280000000
_cell_length_c         9.1470000000
_cell_angle_alpha        90.0000
_cell_angle_beta        90.0000
_cell_angle_gamma        90.0000
_cell_formula_units_Z 1
loop_
_atom_site_label
_atom_site_type_symbol
_atom_site_fract_x
_atom_site_fract_y
_atom_site_fract_z
n      N      0.14590000000000     0.16990000000000     0.10179000000000
n      N      0.85410000000000     0.83010000000000     0.89821000000000
n      N      0.64590000000000     0.16990000000000     0.39821000000000
n      N      0.14590000000000     0.33010000000000     0.60179000000000
n      N      0.64590000000000     0.33010000000000     0.89821000000000
n      N      0.35410000000000     0.66990000000000     0.10179000000000
n      N      0.85410000000000     0.66990000000000     0.39821000000000
n      N      0.35410000000000     0.83010000000000     0.60179000000000
n      N      0.14010000000000     0.01250000000000     0.34609000000000
n      N      0.85990000000000     0.98750000000000     0.65391000000000
n      N      0.64010000000000     0.01250000000000     0.15391000000000
n      N      0.14010000000000     0.48750000000000     0.84609000000000
n      N      0.64010000000000     0.48750000000000     0.65391000000000
n      N      0.35990000000000     0.51250000000000     0.34609000000000
n      N      0.85990000000000     0.51250000000000     0.15391000000000
n      N      0.35990000000000     0.98750000000000     0.84609000000000
c      C      0.14120000000000     0.08370000000000     0.23120000000000
c      C      0.85880000000000     0.91630000000000     0.76880000000000
c      C      0.64120000000000     0.08370000000000     0.26880000000000
c      C      0.14120000000000     0.41630000000000     0.73120000000000
c      C      0.64120000000000     0.41630000000000     0.76880000000000
c      C      0.35880000000000     0.58370000000000     0.23120000000000
c      C      0.85880000000000     0.58370000000000     0.26880000000000
c      C      0.35880000000000     0.91630000000000     0.73120000000000
h      H      0.19700000000000     0.11100000000000     0.02200000000000
h      H      0.80300000000000     0.88900000000000     0.97800000000000
h      H      0.69700000000000     0.11100000000000     0.47800000000000
h      H      0.19700000000000     0.38900000000000     0.52200000000000
h      H      0.69700000000000     0.38900000000000     0.97800000000000
h      H      0.30300000000000     0.61100000000000     0.02200000000000
h      H      0.80300000000000     0.61100000000000     0.47800000000000
h      H      0.30300000000000     0.88900000000000     0.52200000000000
h      H      0.05900000000000     0.26600000000000     0.08700000000000
h      H      0.94100000000000     0.73400000000000     0.91300000000000
h      H      0.55900000000000     0.26600000000000     0.41300000000000
h      H      0.05900000000000     0.23400000000000     0.58700000000000
h      H      0.55900000000000     0.23400000000000     0.91300000000000
h      H      0.44100000000000     0.76600000000000     0.08700000000000
h      H      0.94100000000000     0.76600000000000     0.41300000000000
h      H      0.44100000000000     0.73400000000000     0.58700000000000
