data_stdin
_cell_volume           248.773079
_symmetry_space_group_name_H-M 'P 1'
_symmetry_Int_Tables_number 1
loop_
_symmetry_equiv_pos_site_id
_symmetry_equiv_pos_as_xyz
1 x,y,z
_cell_length_a         5.0510000000
_cell_length_b         7.0110000000
_cell_length_c         7.5430000000
_cell_angle_alpha       101.3700
_cell_angle_beta       104.5800
_cell_angle_gamma        76.6500
_cell_formula_units_Z 1
loop_
_atom_site_label
_atom_site_type_symbol
_atom_site_fract_x
_atom_site_fract_y
_atom_site_fract_z
c      C      0.86961000000000     0.79270000000000     0.36452000000000
c      C      0.13039000000000     0.20730000000000     0.63548000000000
c      C      0.78113000000000     0.59678000000000     0.27521000000000
c      C      0.21887000000000     0.40322000000000     0.72479000000000
c      C      0.00727000000000     0.28007000000000     0.15288000000000
c      C      0.99273000000000     0.71993000000000     0.84712000000000
h      H      0.70000000000000     0.86000000000000     0.38300000000000
h      H      0.30000000000000     0.14000000000000     0.61700000000000
h      H      0.04200000000000     0.76700000000000     0.50000000000000
h      H      0.95800000000000     0.23300000000000     0.50000000000000
h      H      0.89600000000000     0.88300000000000     0.28300000000000
h      H      0.10400000000000     0.11700000000000     0.71700000000000
h      H      0.70400000000000     0.54300000000000     0.35800000000000
h      H      0.29600000000000     0.45700000000000     0.64200000000000
h      H      0.63700000000000     0.59300000000000     0.14200000000000
h      H      0.36300000000000     0.40700000000000     0.85800000000000
h      H      0.42500000000000     0.20000000000000     0.16700000000000
h      H      0.57500000000000     0.80000000000000     0.83300000000000
h      H      0.25000000000000     0.03300000000000     0.06700000000000
h      H      0.75000000000000     0.96700000000000     0.93300000000000
n      N      0.25108000000000     0.16633000000000     0.12828000000000
n      N      0.74892000000000     0.83367000000000     0.87172000000000
o      O      0.03729000000000     0.46255000000000     0.23785000000000
o      O      0.96271000000000     0.53745000000000     0.76215000000000
o      O      0.78458000000000     0.22614000000000     0.10596000000000
o      O      0.21542000000000     0.77386000000000     0.89404000000000
