data_stdin
_cell_volume           224.074792
_symmetry_space_group_name_H-M 'P 1'
_symmetry_Int_Tables_number 1
loop_
_symmetry_equiv_pos_site_id
_symmetry_equiv_pos_as_xyz
1 x,y,z
_cell_length_a         3.6040000000
_cell_length_b         9.0410000000
_cell_length_c         6.9940000000
_cell_angle_alpha        90.0000
_cell_angle_beta       100.5000
_cell_angle_gamma        90.0000
_cell_formula_units_Z 1
loop_
_atom_site_label
_atom_site_type_symbol
_atom_site_fract_x
_atom_site_fract_y
_atom_site_fract_z
o      O      0.47180000000000     0.93130000000000     0.24860000000000
o      O      0.52820000000000     0.06870000000000     0.75140000000000
o      O      0.97180000000000     0.56870000000000     0.74860000000000
o      O      0.02820000000000     0.43130000000000     0.25140000000000
n      N      0.29960000000000     0.15660000000000     0.11900000000000
n      N      0.70040000000000     0.84340000000000     0.88100000000000
n      N      0.79960000000000     0.34340000000000     0.61900000000000
n      N      0.20040000000000     0.65660000000000     0.38100000000000
c      C      0.33580000000000     0.05650000000000     0.25800000000000
c      C      0.66420000000000     0.94350000000000     0.74200000000000
c      C      0.83580000000000     0.44350000000000     0.75800000000000
c      C      0.16420000000000     0.55650000000000     0.24200000000000
h      H      0.21100000000000     0.24400000000000     0.14000000000000
h      H      0.78900000000000     0.75600000000000     0.86000000000000
h      H      0.71100000000000     0.25600000000000     0.64000000000000
h      H      0.28900000000000     0.74400000000000     0.36000000000000
h      H      0.36700000000000     0.13500000000000     0.00600000000000
h      H      0.63300000000000     0.86500000000000     0.99400000000000
h      H      0.86700000000000     0.36500000000000     0.50600000000000
h      H      0.13300000000000     0.63500000000000     0.49400000000000
h      H      0.24200000000000     0.08900000000000     0.37800000000000
h      H      0.75800000000000     0.91100000000000     0.62200000000000
h      H      0.74200000000000     0.41100000000000     0.87800000000000
h      H      0.25800000000000     0.58900000000000     0.12200000000000
