data_stdin
_cell_volume           340.830621
_symmetry_space_group_name_H-M 'P 1'
_symmetry_Int_Tables_number 1
loop_
_symmetry_equiv_pos_site_id
_symmetry_equiv_pos_as_xyz
1 x,y,z
_cell_length_a         8.0846000000
_cell_length_b         5.9375000000
_cell_length_c         8.6335000000
_cell_angle_alpha        90.0000
_cell_angle_beta       124.6730
_cell_angle_gamma        90.0000
_cell_formula_units_Z 1
loop_
_atom_site_label
_atom_site_type_symbol
_atom_site_fract_x
_atom_site_fract_y
_atom_site_fract_z
c      C      0.08199000000000     0.01979000000000     0.32950000000000
c      C      0.91801000000000     0.98021000000000     0.67050000000000
c      C      0.58199000000000     0.48021000000000     0.32950000000000
c      C      0.41801000000000     0.51979000000000     0.67050000000000
c      C      0.11265000000000     0.16449000000000     0.22341000000000
c      C      0.88735000000000     0.83551000000000     0.77659000000000
c      C      0.61265000000000     0.33551000000000     0.22341000000000
c      C      0.38735000000000     0.66449000000000     0.77659000000000
c      C      0.04811000000000     0.10588000000000     0.03749000000000
c      C      0.95189000000000     0.89412000000000     0.96251000000000
c      C      0.54811000000000     0.39412000000000     0.03749000000000
c      C      0.45189000000000     0.60588000000000     0.96251000000000
c      C      0.07688000000000     0.25268000000000     0.92464000000000
c      C      0.92312000000000     0.74732000000000     0.07536000000000
c      C      0.57688000000000     0.24732000000000     0.92464000000000
c      C      0.42312000000000     0.75268000000000     0.07536000000000
c      C      0.98597000000000     0.80892000000000     0.25465000000000
c      C      0.01403000000000     0.19108000000000     0.74535000000000
c      C      0.48597000000000     0.69108000000000     0.25465000000000
c      C      0.51403000000000     0.30892000000000     0.74535000000000
h      H      0.12730000000000     0.06150000000000     0.46280000000000
h      H      0.87270000000000     0.93850000000000     0.53720000000000
h      H      0.62730000000000     0.43850000000000     0.46280000000000
h      H      0.37270000000000     0.56150000000000     0.53720000000000
h      H      0.18010000000000     0.30800000000000     0.27170000000000
h      H      0.81990000000000     0.69200000000000     0.72830000000000
h      H      0.68010000000000     0.19200000000000     0.27170000000000
h      H      0.31990000000000     0.80800000000000     0.72830000000000
h      H      0.14130000000000     0.39200000000000     0.97410000000000
h      H      0.85870000000000     0.60800000000000     0.02590000000000
h      H      0.64130000000000     0.10800000000000     0.97410000000000
h      H      0.35870000000000     0.89200000000000     0.02590000000000
h      H      0.96280000000000     0.70600000000000     0.33150000000000
h      H      0.03720000000000     0.29400000000000     0.66850000000000
h      H      0.46280000000000     0.79400000000000     0.33150000000000
h      H      0.53720000000000     0.20600000000000     0.66850000000000
