data_stdin
_cell_volume           156.865917
_symmetry_space_group_name_H-M 'P 1'
_symmetry_Int_Tables_number 1
loop_
_symmetry_equiv_pos_site_id
_symmetry_equiv_pos_as_xyz
1 x,y,z
_cell_length_a         5.3300000000
_cell_length_b         6.0150000000
_cell_length_c         5.4360000000
_cell_angle_alpha        90.0000
_cell_angle_beta       115.8300
_cell_angle_gamma        90.0000
_cell_formula_units_Z 1
loop_
_atom_site_label
_atom_site_type_symbol
_atom_site_fract_x
_atom_site_fract_y
_atom_site_fract_z
c      C      0.14410000000000     0.00270000000000     0.00010000000000
c      C      0.85590000000000     0.99730000000000     0.99990000000000
c      C      0.14410000000000     0.49730000000000     0.50010000000000
c      C      0.85590000000000     0.50270000000000     0.49990000000000
h      H      0.49900000000000     0.89800000000000     0.18100000000000
h      H      0.50100000000000     0.10200000000000     0.81900000000000
h      H      0.49900000000000     0.60200000000000     0.68100000000000
h      H      0.50100000000000     0.39800000000000     0.31900000000000
o      O      0.17850000000000     0.10440000000000     0.82240000000000
o      O      0.82150000000000     0.89560000000000     0.17760000000000
o      O      0.17850000000000     0.39560000000000     0.32240000000000
o      O      0.82150000000000     0.60440000000000     0.67760000000000
o      O      0.33110000000000     0.89470000000000     0.20170000000000
o      O      0.66890000000000     0.10530000000000     0.79830000000000
o      O      0.33110000000000     0.60530000000000     0.70170000000000
o      O      0.66890000000000     0.39470000000000     0.29830000000000
