data_stdin
_cell_volume           698.267312
_symmetry_space_group_name_H-M 'P 1'
_symmetry_Int_Tables_number 1
loop_
_symmetry_equiv_pos_site_id
_symmetry_equiv_pos_as_xyz
1 x,y,z
_cell_length_a         8.1900000000
_cell_length_b        12.5880000000
_cell_length_c         6.7730000000
_cell_angle_alpha        90.0000
_cell_angle_beta        90.0000
_cell_angle_gamma        90.0000
_cell_formula_units_Z 1
loop_
_atom_site_label
_atom_site_type_symbol
_atom_site_fract_x
_atom_site_fract_y
_atom_site_fract_z
c      C      0.29818000000000     0.05887000000000     0.38435000000000
c      C      0.79818000000000     0.55887000000000     0.11565000000000
c      C      0.29818000000000     0.44113000000000     0.88435000000000
c      C      0.79818000000000     0.94113000000000     0.61565000000000
c      C      0.72686000000000     0.18656000000000     0.92885000000000
c      C      0.22686000000000     0.68656000000000     0.57115000000000
c      C      0.72686000000000     0.31344000000000     0.42885000000000
c      C      0.22686000000000     0.81344000000000     0.07115000000000
c      C      0.39906000000000     0.11710000000000     0.50871000000000
c      C      0.89906000000000     0.61710000000000     0.99129000000000
c      C      0.39906000000000     0.38290000000000     0.00871000000000
c      C      0.89906000000000     0.88290000000000     0.49129000000000
c      C      0.62120000000000     0.10967000000000     0.00180000000000
c      C      0.12120000000000     0.60967000000000     0.49820000000000
c      C      0.62120000000000     0.39033000000000     0.50180000000000
c      C      0.12120000000000     0.89033000000000     0.99820000000000
c      C      0.30324000000000     0.19822000000000     0.57824000000000
c      C      0.80324000000000     0.69822000000000     0.92176000000000
c      C      0.30324000000000     0.30178000000000     0.07824000000000
c      C      0.80324000000000     0.80178000000000     0.42176000000000
c      C      0.71147000000000     0.05334000000000     0.13638000000000
c      C      0.21147000000000     0.55334000000000     0.36362000000000
c      C      0.71147000000000     0.44666000000000     0.63638000000000
c      C      0.21147000000000     0.94666000000000     0.86362000000000
h      H      0.06125000000000     0.21839000000000     0.52798000000000
h      H      0.56125000000000     0.71839000000000     0.97202000000000
h      H      0.06125000000000     0.28161000000000     0.02798000000000
h      H      0.56125000000000     0.78161000000000     0.47202000000000
h      H      0.94234000000000     0.08611000000000     0.22531000000000
h      H      0.44234000000000     0.58611000000000     0.27469000000000
h      H      0.94234000000000     0.41389000000000     0.72531000000000
h      H      0.44234000000000     0.91389000000000     0.77469000000000
h      H      0.31808000000000     0.25651000000000     0.68571000000000
h      H      0.81808000000000     0.75651000000000     0.81429000000000
h      H      0.31808000000000     0.24349000000000     0.18571000000000
h      H      0.81808000000000     0.74349000000000     0.31429000000000
h      H      0.68431000000000     0.99484000000000     0.23983000000000
h      H      0.18431000000000     0.49484000000000     0.26017000000000
h      H      0.68431000000000     0.50516000000000     0.73983000000000
h      H      0.18431000000000     0.00516000000000     0.76017000000000
h      H      0.50781000000000     0.10042000000000     0.53690000000000
h      H      0.00781000000000     0.60042000000000     0.96310000000000
h      H      0.50781000000000     0.39958000000000     0.03690000000000
h      H      0.00781000000000     0.89958000000000     0.46310000000000
h      H      0.51187000000000     0.10212000000000     0.96471000000000
h      H      0.01187000000000     0.60212000000000     0.53529000000000
h      H      0.51187000000000     0.39788000000000     0.46471000000000
h      H      0.01187000000000     0.89788000000000     0.03529000000000
h      H      0.32078000000000     0.99774000000000     0.32164000000000
h      H      0.82078000000000     0.49774000000000     0.17836000000000
h      H      0.32078000000000     0.50226000000000     0.82164000000000
h      H      0.82078000000000     0.00226000000000     0.67836000000000
h      H      0.70431000000000     0.23962000000000     0.84453000000000
h      H      0.20431000000000     0.73962000000000     0.65547000000000
h      H      0.70431000000000     0.26038000000000     0.34453000000000
h      H      0.20431000000000     0.76038000000000     0.15547000000000
n      N      0.15574000000000     0.18434000000000     0.49784000000000
n      N      0.65574000000000     0.68434000000000     0.00216000000000
n      N      0.15574000000000     0.31566000000000     0.99784000000000
n      N      0.65574000000000     0.81566000000000     0.50216000000000
n      N      0.85938000000000     0.09816000000000     0.13926000000000
n      N      0.35938000000000     0.59816000000000     0.36074000000000
n      N      0.85938000000000     0.40184000000000     0.63926000000000
n      N      0.35938000000000     0.90184000000000     0.86074000000000
n      N      0.14806000000000     0.09867000000000     0.37774000000000
n      N      0.64806000000000     0.59867000000000     0.12226000000000
n      N      0.14806000000000     0.40133000000000     0.87774000000000
n      N      0.64806000000000     0.90133000000000     0.62226000000000
n      N      0.87302000000000     0.18105000000000     0.01329000000000
n      N      0.37302000000000     0.68105000000000     0.48671000000000
n      N      0.87302000000000     0.31895000000000     0.51329000000000
n      N      0.37302000000000     0.81895000000000     0.98671000000000
