data_stdin
_cell_volume           203.639816
_symmetry_space_group_name_H-M 'P 1'
_symmetry_Int_Tables_number 1
loop_
_symmetry_equiv_pos_site_id
_symmetry_equiv_pos_as_xyz
1 x,y,z
_cell_length_a         9.3250000000
_cell_length_b         5.8500000000
_cell_length_c         3.7330000000
_cell_angle_alpha        90.0000
_cell_angle_beta        90.0000
_cell_angle_gamma        90.0000
_cell_formula_units_Z 1
loop_
_atom_site_label
_atom_site_type_symbol
_atom_site_fract_x
_atom_site_fract_y
_atom_site_fract_z
n      N      0.14994000000000     0.00000000000000     0.00000000000000
n      N      0.85006000000000     0.00000000000000     0.00000000000000
n      N      0.64994000000000     0.50000000000000     0.50000000000000
n      N      0.35006000000000     0.50000000000000     0.50000000000000
c      C      0.07442000000000     0.17735000000000     0.12085000000000
c      C      0.92558000000000     0.82265000000000     0.87915000000000
c      C      0.57442000000000     0.67735000000000     0.37915000000000
c      C      0.57442000000000     0.32265000000000     0.62085000000000
c      C      0.07442000000000     0.82265000000000     0.87915000000000
c      C      0.92558000000000     0.17735000000000     0.12085000000000
c      C      0.42558000000000     0.67735000000000     0.37915000000000
c      C      0.42558000000000     0.32265000000000     0.62085000000000
h      H      0.12800000000000     0.30500000000000     0.19400000000000
h      H      0.87200000000000     0.69500000000000     0.80600000000000
h      H      0.62800000000000     0.80500000000000     0.30600000000000
h      H      0.62800000000000     0.19500000000000     0.69400000000000
h      H      0.12800000000000     0.69500000000000     0.80600000000000
h      H      0.87200000000000     0.30500000000000     0.19400000000000
h      H      0.37200000000000     0.80500000000000     0.30600000000000
h      H      0.37200000000000     0.19500000000000     0.69400000000000
