data_stdin
_cell_volume           586.821774
_symmetry_space_group_name_H-M 'P 1'
_symmetry_Int_Tables_number 1
loop_
_symmetry_equiv_pos_site_id
_symmetry_equiv_pos_as_xyz
1 x,y,z
_cell_length_a         9.6470000000
_cell_length_b         9.6470000000
_cell_length_c         7.2810000000
_cell_angle_alpha        90.0000
_cell_angle_beta        90.0000
_cell_angle_gamma       120.0000
_cell_formula_units_Z 1
loop_
_atom_site_label
_atom_site_type_symbol
_atom_site_fract_x
_atom_site_fract_y
_atom_site_fract_z
c      C      0.00000000000000     0.13160000000000     0.25000000000000
c      C      0.33333333000000     0.79826667000000     0.91666667000000
c      C      0.66666666000000     0.46493334000000     0.58333334000000
c      C      0.00000000000000     0.86840000000000     0.75000000000000
c      C      0.33333333000000     0.53506667000000     0.41666667000000
c      C      0.66666666000000     0.20173334000000     0.08333334000000
c      C      0.13160000000000     0.00000000000000     0.25000000000000
c      C      0.46493333000000     0.66666667000000     0.91666667000000
c      C      0.79826666000000     0.33333334000000     0.58333334000000
c      C      0.13160000000000     0.13160000000000     0.75000000000000
c      C      0.46493333000000     0.79826667000000     0.41666667000000
c      C      0.79826666000000     0.46493334000000     0.08333334000000
c      C      0.86840000000000     0.00000000000000     0.75000000000000
c      C      0.20173333000000     0.66666667000000     0.41666667000000
c      C      0.53506666000000     0.33333334000000     0.08333334000000
c      C      0.86840000000000     0.86840000000000     0.25000000000000
c      C      0.20173333000000     0.53506667000000     0.91666667000000
c      C      0.53506666000000     0.20173334000000     0.58333334000000
h      H      0.00000000000000     0.22840000000000     0.25000000000000
h      H      0.33333333000000     0.89506667000000     0.91666667000000
h      H      0.66666666000000     0.56173334000000     0.58333334000000
h      H      1.00000000000000     0.77160000000000     0.75000000000000
h      H      0.33333333000000     0.43826667000000     0.41666667000000
h      H      0.66666666000000     0.10493334000000     0.08333334000000
h      H      0.22840000032267     0.99999999967733     0.24999999967733
h      H      0.56173333032267     0.66666666967733     0.91666666967733
h      H      0.89506666032267     0.33333333967733     0.58333333967733
h      H      0.22840000032267     0.22840000161333     0.74999999967733
h      H      0.56173333032267     0.89506667161333     0.41666666967733
h      H      0.89506666032267     0.56173334161333     0.08333333967733
h      H      0.77159999838667     0.99999999967733     0.74999999967733
h      H      0.10493332838667     0.66666666967733     0.41666666967733
h      H      0.43826665838667     0.33333333967733     0.08333333967733
h      H      0.77159999838667     0.77159999967733     0.24999999967733
h      H      0.10493332838667     0.43826666967733     0.91666666967733
h      H      0.43826665838667     0.10493333967733     0.58333333967733
n      N      0.85940000000000     0.00000000000000     0.25000000000000
n      N      0.19273333000000     0.66666667000000     0.91666667000000
n      N      0.52606666000000     0.33333334000000     0.58333334000000
n      N      0.14060000000000     0.00000000000000     0.75000000000000
n      N      0.47393333000000     0.66666667000000     0.41666667000000
n      N      0.80726666000000     0.33333334000000     0.08333334000000
n      N      0.00000000242600     0.85939999757400     0.24999999757400
n      N      0.33333333242600     0.52606666757400     0.91666666757400
n      N      0.66666666242600     0.19273333757400     0.58333333757400
n      N      0.85940000000000     0.85940001122600     0.75000000000000
n      N      0.19273333000000     0.52606668122600     0.41666667000000
n      N      0.52606666000000     0.19273335122600     0.08333334000000
n      N      0.00000000242600     0.14059998634800     0.74999999757400
n      N      0.33333333242600     0.80726665634800     0.41666666757400
n      N      0.66666666242600     0.47393332634800     0.08333333757400
n      N      0.14059998877400     0.14060000000000     0.25000000000000
n      N      0.47393331877400     0.80726667000000     0.91666667000000
n      N      0.80726664877400     0.47393334000000     0.58333334000000
