data_stdin
_cell_volume           463.386269
_symmetry_space_group_name_H-M 'P 1'
_symmetry_Int_Tables_number 1
loop_
_symmetry_equiv_pos_site_id
_symmetry_equiv_pos_as_xyz
1 x,y,z
_cell_length_a        11.9380000000
_cell_length_b        12.3760000000
_cell_length_c         3.6552000000
_cell_angle_alpha        90.0000
_cell_angle_beta       120.9000
_cell_angle_gamma        90.0000
_cell_formula_units_Z 1
loop_
_atom_site_label
_atom_site_type_symbol
_atom_site_fract_x
_atom_site_fract_y
_atom_site_fract_z
c      C      0.15191000000000     0.20933000000000     0.00913000000000
c      C      0.84809000000000     0.79067000000000     0.99087000000000
c      C      0.65191000000000     0.29067000000000     0.00913000000000
c      C      0.34809000000000     0.70933000000000     0.99087000000000
c      C      0.17988000000000     0.01237000000000     0.03494000000000
c      C      0.82012000000000     0.98763000000000     0.96506000000000
c      C      0.67988000000000     0.48763000000000     0.03494000000000
c      C      0.32012000000000     0.51237000000000     0.96506000000000
c      C      0.30519000000000     0.02857000000000     0.08193000000000
c      C      0.69481000000000     0.97143000000000     0.91807000000000
c      C      0.80519000000000     0.47143000000000     0.08193000000000
c      C      0.19481000000000     0.52857000000000     0.91807000000000
c      C      0.34620000000000     0.12977000000000     0.08905000000000
c      C      0.65380000000000     0.87023000000000     0.91095000000000
c      C      0.84620000000000     0.37023000000000     0.08905000000000
c      C      0.15380000000000     0.62977000000000     0.91095000000000
h      H      0.42790000000000     0.14640000000000     0.11200000000000
h      H      0.57210000000000     0.85360000000000     0.88800000000000
h      H      0.92790000000000     0.35360000000000     0.11200000000000
h      H      0.07210000000000     0.64640000000000     0.88800000000000
h      H      0.29640000000000     0.28040000000000     0.04160000000000
h      H      0.70360000000000     0.71960000000000     0.95840000000000
h      H      0.79640000000000     0.21960000000000     0.04160000000000
h      H      0.20360000000000     0.78040000000000     0.95840000000000
h      H      0.03430000000000     0.09470000000000     0.96800000000000
h      H      0.96570000000000     0.90530000000000     0.03200000000000
h      H      0.53430000000000     0.40530000000000     0.96800000000000
h      H      0.46570000000000     0.59470000000000     0.03200000000000
h      H      0.35360000000000     0.96780000000000     0.09860000000000
h      H      0.64640000000000     0.03220000000000     0.90140000000000
h      H      0.85360000000000     0.53220000000000     0.09860000000000
h      H      0.14640000000000     0.46780000000000     0.90140000000000
n      N      0.27283000000000     0.21750000000000     0.05336000000000
n      N      0.72717000000000     0.78250000000000     0.94664000000000
n      N      0.77283000000000     0.28250000000000     0.05336000000000
n      N      0.22717000000000     0.71750000000000     0.94664000000000
n      N      0.11208000000000     0.10468000000000     0.00406000000000
n      N      0.88792000000000     0.89532000000000     0.99594000000000
n      N      0.61208000000000     0.39532000000000     0.00406000000000
n      N      0.38792000000000     0.60468000000000     0.99594000000000
o      O      0.08497000000000     0.28677000000000     0.97827000000000
o      O      0.91503000000000     0.71323000000000     0.02173000000000
o      O      0.58497000000000     0.21323000000000     0.97827000000000
o      O      0.41503000000000     0.78677000000000     0.02173000000000
o      O      0.12987000000000     0.92294000000000     0.01962000000000
o      O      0.87013000000000     0.07706000000000     0.98038000000000
o      O      0.62987000000000     0.57706000000000     0.01962000000000
o      O      0.37013000000000     0.42294000000000     0.98038000000000
