data_stdin
_cell_volume           145.059850
_symmetry_space_group_name_H-M 'P 1'
_symmetry_Int_Tables_number 1
loop_
_symmetry_equiv_pos_site_id
_symmetry_equiv_pos_as_xyz
1 x,y,z
_cell_length_a         5.5650000000
_cell_length_b         5.5650000000
_cell_length_c         4.6840000000
_cell_angle_alpha        90.0000
_cell_angle_beta        90.0000
_cell_angle_gamma        90.0000
_cell_formula_units_Z 1
loop_
_atom_site_label
_atom_site_type_symbol
_atom_site_fract_x
_atom_site_fract_y
_atom_site_fract_z
c      C      1.00000000000000     0.50000000000000     0.32600000000000
c      C      0.50000000000000     0.00000000000000     0.67400000000000
o      O      1.00000000000000     0.50000000000000     0.59530000000000
o      O      0.50000000000000     0.00000000000000     0.40470000000000
n      N      0.14590000000000     0.64590000000000     0.17660000000000
n      N      0.64590000000000     0.85410000000000     0.82340000000000
n      N      0.35410000000000     0.14590000000000     0.82340000000000
n      N      0.85410000000000     0.35410000000000     0.17660000000000
h      H      0.25750000000000     0.75750000000000     0.28270000000000
h      H      0.75750000000000     0.74250000000000     0.71730000000000
h      H      0.24250000000000     0.25750000000000     0.71730000000000
h      H      0.74250000000000     0.24250000000000     0.28270000000000
h      H      0.14410000000000     0.64410000000000     0.96200000000000
h      H      0.64410000000000     0.85590000000000     0.03800000000000
h      H      0.35590000000000     0.14410000000000     0.03800000000000
h      H      0.85590000000000     0.35590000000000     0.96200000000000
