data_default
_cell_volume           386.788843
_symmetry_space_group_name_H-M 'P 1'
_symmetry_Int_Tables_number 1
loop_
_symmetry_equiv_pos_site_id
_symmetry_equiv_pos_as_xyz
1 x,y,z
_cell_length_a         8.4643800000
_cell_length_b         5.3911800000
_cell_length_c         8.6562100000
_cell_angle_alpha        79.1040
_cell_angle_beta        85.9431
_cell_angle_gamma        87.7965
_cell_formula_units_Z 1
loop_
_atom_site_label
_atom_site_type_symbol
_atom_site_fract_x
_atom_site_fract_y
_atom_site_fract_z
N1     N      0.19085000000000     0.94393000000000     0.12797000000000
N1     N      0.80915000000000     0.05607000000000     0.87203000000000
C2     C      0.19144000000000     0.12788000000000     0.23318000000000
C2     C      0.80856000000000     0.87212000000000     0.76682000000000
C3     C      0.36704000000000     0.05657000000000     0.25818000000000
C3     C      0.63296000000000     0.94343000000000     0.74182000000000
C4     C      0.33470000000000     0.81748000000000     0.19332000000000
C4     C      0.66530000000000     0.18252000000000     0.80668000000000
H5     H      0.42047000000000     0.76160000000000     0.10648000000000
H5     H      0.57953000000000     0.23840000000000     0.89352000000000
H6     H      0.31148000000000     0.65511000000000     0.28710000000000
H6     H      0.68852000000000     0.34489000000000     0.71290000000000
H7     H      0.44673000000000     0.18250000000000     0.17978000000000
H7     H      0.55327000000000     0.81750000000000     0.82022000000000
H8     H      0.40467000000000     0.03079000000000     0.37725000000000
H8     H      0.59533000000000     0.96921000000000     0.62275000000000
H9     H      0.11650000000000     0.07756000000000     0.34134000000000
H9     H      0.88350000000000     0.92244000000000     0.65866000000000
H10    H      0.16253000000000     0.32048000000000     0.17824000000000
H10    H      0.83747000000000     0.67952000000000     0.82176000000000
H11    H      0.09469000000000     0.83838000000000     0.13762000000000
H11    H      0.90531000000000     0.16162000000000     0.86238000000000
N1     N      0.87738000000000     0.68289000000000     0.16655000000000
N1     N      0.12262000000000     0.31711000000000     0.83345000000000
C2     C      0.79801000000000     0.72096000000000     0.31697000000000
C2     C      0.20199000000000     0.27904000000000     0.68303000000000
C3     C      0.75687000000000     0.43908000000000     0.35248000000000
C3     C      0.24313000000000     0.56092000000000     0.64752000000000
C4     C      0.79296000000000     0.44750000000000     0.17461000000000
C4     C      0.20704000000000     0.55250000000000     0.82539000000000
H5     H      0.86509000000000     0.29504000000000     0.13893000000000
H5     H      0.13491000000000     0.70496000000000     0.86107000000000
H6     H      0.68584000000000     0.47153000000000     0.11012000000000
H6     H      0.31416000000000     0.52847000000000     0.88988000000000
H7     H      0.84218000000000     0.32334000000000     0.42357000000000
H7     H      0.15782000000000     0.67666000000000     0.57643000000000
H8     H      0.63818000000000     0.39066000000000     0.40083000000000
H8     H      0.36182000000000     0.60934000000000     0.59917000000000
H9     H      0.69271000000000     0.84370000000000     0.30386000000000
H9     H      0.30729000000000     0.15630000000000     0.69614000000000
H10    H      0.87418000000000     0.78739000000000     0.39524000000000
H10    H      0.12582000000000     0.21261000000000     0.60476000000000
H11    H      0.86095000000000     0.81917000000000     0.07273000000000
H11    H      0.13905000000000     0.18083000000000     0.92727000000000
