data_default
_cell_volume           374.223876
_symmetry_space_group_name_H-M 'P 1'
_symmetry_Int_Tables_number 1
loop_
_symmetry_equiv_pos_site_id
_symmetry_equiv_pos_as_xyz
1 x,y,z
_cell_length_a         8.9340000000
_cell_length_b         6.6880000000
_cell_length_c         6.3440000000
_cell_angle_alpha        90.0000
_cell_angle_beta        80.8400
_cell_angle_gamma        90.0000
_cell_formula_units_Z 1
loop_
_atom_site_label
_atom_site_type_symbol
_atom_site_fract_x
_atom_site_fract_y
_atom_site_fract_z
C1     C      0.28934000000000     0.41949000000000     0.10809000000000
C1     C      0.71066000000000     0.58051000000000     0.89191000000000
C1     C      0.71066000000000     0.91949000000000     0.39191000000000
C1     C      0.28934000000000     0.08051000000000     0.60809000000000
C2     C      0.13422000000000     0.44370000000000     0.25540000000000
C2     C      0.86578000000000     0.55630000000000     0.74460000000000
C2     C      0.86578000000000     0.94370000000000     0.24460000000000
C2     C      0.13422000000000     0.05630000000000     0.75540000000000
N3     N      0.19334000000000     0.62806000000000     0.34015000000000
N3     N      0.80666000000000     0.37194000000000     0.65985000000000
N3     N      0.80666000000000     0.12806000000000     0.15985000000000
N3     N      0.19334000000000     0.87194000000000     0.84015000000000
C4     C      0.35150000000000     0.58103000000000     0.24695000000000
C4     C      0.64850000000000     0.41897000000000     0.75305000000000
C4     C      0.64850000000000     0.08103000000000     0.25305000000000
C4     C      0.35150000000000     0.91897000000000     0.74695000000000
H5     H      0.34206000000000     0.27229000000000     0.10445000000000
H5     H      0.65794000000000     0.72771000000000     0.89555000000000
H5     H      0.65794000000000     0.77229000000000     0.39555000000000
H5     H      0.34206000000000     0.22771000000000     0.60445000000000
H6     H      0.28694000000000     0.46923000000000     0.94506000000000
H6     H      0.71306000000000     0.53077000000000     0.05494000000000
H6     H      0.71306000000000     0.96923000000000     0.55494000000000
H6     H      0.28694000000000     0.03077000000000     0.44506000000000
H7     H      0.11066000000000     0.32314000000000     0.37156000000000
H7     H      0.88934000000000     0.67686000000000     0.62844000000000
H7     H      0.88934000000000     0.82314000000000     0.12844000000000
H7     H      0.11066000000000     0.17686000000000     0.87156000000000
H8     H      0.03516000000000     0.46596000000000     0.17760000000000
H8     H      0.96484000000000     0.53404000000000     0.82240000000000
H8     H      0.96484000000000     0.96596000000000     0.32240000000000
H8     H      0.03516000000000     0.03404000000000     0.67760000000000
H9     H      0.16454000000000     0.66870000000000     0.49292000000000
H9     H      0.83546000000000     0.33130000000000     0.50708000000000
H9     H      0.83546000000000     0.16870000000000     0.00708000000000
H9     H      0.16454000000000     0.83130000000000     0.99292000000000
H10    H      0.41892000000000     0.51799000000000     0.35957000000000
H10    H      0.58108000000000     0.48201000000000     0.64043000000000
H10    H      0.58108000000000     0.01799000000000     0.14043000000000
H10    H      0.41892000000000     0.98201000000000     0.85957000000000
H11    H      0.41365000000000     0.70519000000000     0.16288000000000
H11    H      0.58635000000000     0.29481000000000     0.83712000000000
H11    H      0.58635000000000     0.20519000000000     0.33712000000000
H11    H      0.41365000000000     0.79481000000000     0.66288000000000
