data_default
_cell_volume           211.014755
_symmetry_space_group_name_H-M 'P 1'
_symmetry_Int_Tables_number 1
loop_
_symmetry_equiv_pos_site_id
_symmetry_equiv_pos_as_xyz
1 x,y,z
_cell_length_a         5.5152000000
_cell_length_b         4.7845000000
_cell_length_c         8.0133000000
_cell_angle_alpha        90.0000
_cell_angle_beta        93.6800
_cell_angle_gamma        90.0000
_cell_formula_units_Z 1
loop_
_atom_site_label
_atom_site_type_symbol
_atom_site_fract_x
_atom_site_fract_y
_atom_site_fract_z
C1     C      0.33653000000000     0.58947000000000     0.66910000000000
C1     C      0.66347000000000     0.08947000000000     0.33090000000000
N2     N      0.07585000000000     0.60059000000000     0.60480000000000
N2     N      0.92415000000000     0.10059000000000     0.39520000000000
C3     C      0.00033000000000     0.59704000000000     0.78090000000000
C3     C      0.99967000000000     0.09704000000000     0.21910000000000
C4     C      0.25878000000000     0.69632000000000     0.83993000000000
C4     C      0.74122000000000     0.19632000000000     0.16007000000000
H5     H      0.45932000000000     0.72155000000000     0.60036000000000
H5     H      0.54068000000000     0.22155000000000     0.39964000000000
H6     H      0.41106000000000     0.37584000000000     0.67777000000000
H6     H      0.58894000000000     0.87584000000000     0.32223000000000
H7     H      0.02041000000000     0.42906000000000     0.53659000000000
H7     H      0.97959000000000     0.92906000000000     0.46341000000000
H8     H      0.96132000000000     0.38596000000000     0.82733000000000
H8     H      0.03868000000000     0.88596000000000     0.17267000000000
H9     H      0.84682000000000     0.73532000000000     0.80404000000000
H9     H      0.15318000000000     0.23532000000000     0.19596000000000
H10    H      0.34415000000000     0.59912000000000     0.95269000000000
H10    H      0.65585000000000     0.09912000000000     0.04731000000000
H11    H      0.27094000000000     0.92441000000000     0.85084000000000
H11    H      0.72906000000000     0.42441000000000     0.14916000000000
