data_default
_cell_volume           420.688850
_symmetry_space_group_name_H-M 'P 1'
_symmetry_Int_Tables_number 1
loop_
_symmetry_equiv_pos_site_id
_symmetry_equiv_pos_as_xyz
1 x,y,z
_cell_length_a         5.5378000000
_cell_length_b         4.7292000000
_cell_length_c        16.0897000000
_cell_angle_alpha        90.0000
_cell_angle_beta        93.2797
_cell_angle_gamma        90.0000
_cell_formula_units_Z 1
loop_
_atom_site_label
_atom_site_type_symbol
_atom_site_fract_x
_atom_site_fract_y
_atom_site_fract_z
C1     C      0.00261000000000     0.28140000000000     0.10941000000000
C1     C      0.99739000000000     0.78140000000000     0.39059000000000
C1     C      0.99739000000000     0.71860000000000     0.89059000000000
C1     C      0.00261000000000     0.21860000000000     0.60941000000000
N2     N      0.92384000000000     0.27054000000000     0.19681000000000
N2     N      0.07616000000000     0.77054000000000     0.30319000000000
N2     N      0.07616000000000     0.72946000000000     0.80319000000000
N2     N      0.92384000000000     0.22946000000000     0.69681000000000
C3     C      0.66562000000000     0.29013000000000     0.16437000000000
C3     C      0.33438000000000     0.79013000000000     0.33563000000000
C3     C      0.33438000000000     0.70987000000000     0.83563000000000
C3     C      0.66562000000000     0.20987000000000     0.66437000000000
C4     C      0.74476000000000     0.18906000000000     0.07860000000000
C4     C      0.25524000000000     0.68906000000000     0.42140000000000
C4     C      0.25524000000000     0.81094000000000     0.92140000000000
C4     C      0.74476000000000     0.31094000000000     0.57860000000000
H5     H      0.15378000000000     0.13970000000000     0.09697000000000
H5     H      0.84622000000000     0.63970000000000     0.40303000000000
H5     H      0.84622000000000     0.86030000000000     0.90303000000000
H5     H      0.15378000000000     0.36030000000000     0.59697000000000
H6     H      0.04576000000000     0.49636000000000     0.08833000000000
H6     H      0.95424000000000     0.99636000000000     0.41167000000000
H6     H      0.95424000000000     0.50364000000000     0.91167000000000
H6     H      0.04576000000000     0.00364000000000     0.58833000000000
H7     H      0.98044000000000     0.43948000000000     0.23242000000000
H7     H      0.01956000000000     0.93948000000000     0.26758000000000
H7     H      0.01956000000000     0.56052000000000     0.76758000000000
H7     H      0.98044000000000     0.06052000000000     0.73242000000000
H8     H      0.59495000000000     0.50802000000000     0.16185000000000
H8     H      0.40505000000000     0.00802000000000     0.33815000000000
H8     H      0.40505000000000     0.49198000000000     0.83815000000000
H8     H      0.59495000000000     0.99198000000000     0.66185000000000
H9     H      0.53983000000000     0.15560000000000     0.19710000000000
H9     H      0.46017000000000     0.65560000000000     0.30290000000000
H9     H      0.46017000000000     0.84440000000000     0.80290000000000
H9     H      0.53983000000000     0.34440000000000     0.69710000000000
H10    H      0.66351000000000     0.29463000000000     0.02322000000000
H10    H      0.33649000000000     0.79463000000000     0.47678000000000
H10    H      0.33649000000000     0.70537000000000     0.97678000000000
H10    H      0.66351000000000     0.20537000000000     0.52322000000000
H11    H      0.72922000000000     0.95922000000000     0.07106000000000
H11    H      0.27078000000000     0.45922000000000     0.42894000000000
H11    H      0.27078000000000     0.04078000000000     0.92894000000000
H11    H      0.72922000000000     0.54078000000000     0.57106000000000
