data_default
_cell_volume           344.397145
_symmetry_space_group_name_H-M 'P 1'
_symmetry_Int_Tables_number 1
loop_
_symmetry_equiv_pos_site_id
_symmetry_equiv_pos_as_xyz
1 x,y,z
_cell_length_a         5.1110000000
_cell_length_b         5.1800000000
_cell_length_c        13.1140000000
_cell_angle_alpha        90.0000
_cell_angle_beta        97.2760
_cell_angle_gamma        90.0000
_cell_formula_units_Z 1
loop_
_atom_site_label
_atom_site_type_symbol
_atom_site_fract_x
_atom_site_fract_y
_atom_site_fract_z
N1     N      0.63262000000000     0.67091000000000     0.70240000000000
N1     N      0.36738000000000     0.17091000000000     0.79760000000000
N1     N      0.36738000000000     0.32909000000000     0.29760000000000
N1     N      0.63262000000000     0.82909000000000     0.20240000000000
C2     C      0.54410000000000     0.78825000000000     0.60245000000000
C2     C      0.45590000000000     0.28825000000000     0.89755000000000
C2     C      0.45590000000000     0.21175000000000     0.39755000000000
C2     C      0.54410000000000     0.71175000000000     0.10245000000000
C3     C      0.82958000000000     0.76715000000000     0.57684000000000
C3     C      0.17042000000000     0.26715000000000     0.92316000000000
C3     C      0.17042000000000     0.23285000000000     0.42316000000000
C3     C      0.82958000000000     0.73285000000000     0.07684000000000
C4     C      0.85712000000000     0.55551000000000     0.66010000000000
C4     C      0.14288000000000     0.05551000000000     0.83990000000000
C4     C      0.14288000000000     0.44449000000000     0.33990000000000
C4     C      0.85712000000000     0.94449000000000     0.16010000000000
H5     H      0.50777000000000     0.54563000000000     0.72923000000000
H5     H      0.49223000000000     0.04563000000000     0.77077000000000
H5     H      0.49223000000000     0.45437000000000     0.27077000000000
H5     H      0.50777000000000     0.95437000000000     0.22923000000000
H6     H      0.40733000000000     0.66510000000000     0.55195000000000
H6     H      0.59267000000000     0.16510000000000     0.94805000000000
H6     H      0.59267000000000     0.33490000000000     0.44805000000000
H6     H      0.40733000000000     0.83490000000000     0.05195000000000
H7     H      0.45351000000000     0.97997000000000     0.60610000000000
H7     H      0.54649000000000     0.47997000000000     0.89390000000000
H7     H      0.54649000000000     0.02003000000000     0.39390000000000
H7     H      0.45351000000000     0.52003000000000     0.10610000000000
H8     H      0.95091000000000     0.93890000000000     0.59855000000000
H8     H      0.04909000000000     0.43890000000000     0.90145000000000
H8     H      0.04909000000000     0.06110000000000     0.40145000000000
H8     H      0.95091000000000     0.56110000000000     0.09855000000000
H9     H      0.85860000000000     0.71180000000000     0.49836000000000
H9     H      0.14140000000000     0.21180000000000     0.00164000000000
H9     H      0.14140000000000     0.28820000000000     0.50164000000000
H9     H      0.85860000000000     0.78820000000000     0.99836000000000
H10    H      0.03997000000000     0.54473000000000     0.71403000000000
H10    H      0.96003000000000     0.04473000000000     0.78597000000000
H10    H      0.96003000000000     0.45527000000000     0.28597000000000
H10    H      0.03997000000000     0.95527000000000     0.21403000000000
H11    H      0.81504000000000     0.36131000000000     0.62763000000000
H11    H      0.18496000000000     0.86131000000000     0.87237000000000
H11    H      0.18496000000000     0.63869000000000     0.37237000000000
H11    H      0.81504000000000     0.13869000000000     0.12763000000000
