data_default
_cell_volume           189.181363
_symmetry_space_group_name_H-M 'P 1'
_symmetry_Int_Tables_number 1
loop_
_symmetry_equiv_pos_site_id
_symmetry_equiv_pos_as_xyz
1 x,y,z
_cell_length_a         7.4350000000
_cell_length_b         6.1700000000
_cell_length_c         7.1530000000
_cell_angle_alpha        90.5140
_cell_angle_beta        89.8480
_cell_angle_gamma       144.7900
_cell_formula_units_Z 1
loop_
_atom_site_label
_atom_site_type_symbol
_atom_site_fract_x
_atom_site_fract_y
_atom_site_fract_z
N1     N      0.18055000000000     0.76383000000000     0.22029000000000
N1     N      0.81945000000000     0.23617000000000     0.77971000000000
H2     H      0.26647000000000     0.69722000000000     0.23498000000000
H2     H      0.73353000000000     0.30278000000000     0.76502000000000
C3     C      0.16476000000000     0.89526000000000     0.38717000000000
C3     C      0.83524000000000     0.10474000000000     0.61283000000000
H4     H      0.33871000000000     0.03349000000000     0.49381000000000
H4     H      0.66129000000000     0.96651000000000     0.50619000000000
H5     H      0.93591000000000     0.68114000000000     0.44956000000000
H5     H      0.06409000000000     0.31886000000000     0.55044000000000
C6     C      0.36160000000000     0.10445000000000     0.11053000000000
C6     C      0.63840000000000     0.89555000000000     0.88947000000000
H7     H      0.61175000000000     0.32616000000000     0.11009000000000
H7     H      0.38825000000000     0.67384000000000     0.88991000000000
H8     H      0.27847000000000     0.04444000000000     0.96857000000000
H8     H      0.72153000000000     0.95556000000000     0.03143000000000
C9     C      0.26324000000000     0.18366000000000     0.25791000000000
C9     C      0.73676000000000     0.81634000000000     0.74209000000000
H10    H      0.44605000000000     0.46926000000000     0.31083000000000
H10    H      0.55395000000000     0.53074000000000     0.68917000000000
H11    H      0.06429000000000     0.08151000000000     0.21105000000000
H11    H      0.93571000000000     0.91849000000000     0.78895000000000
