data_default
_cell_volume           192.724164
_symmetry_space_group_name_H-M 'P 1'
_symmetry_Int_Tables_number 1
loop_
_symmetry_equiv_pos_site_id
_symmetry_equiv_pos_as_xyz
1 x,y,z
_cell_length_a         5.2870000000
_cell_length_b         8.0530000000
_cell_length_c         5.2440000000
_cell_angle_alpha        81.3400
_cell_angle_beta       106.4950
_cell_angle_gamma        69.5760
_cell_formula_units_Z 1
loop_
_atom_site_label
_atom_site_type_symbol
_atom_site_fract_x
_atom_site_fract_y
_atom_site_fract_z
N1     N      0.16845000000000     0.21528000000000     0.09394000000000
N1     N      0.83155000000000     0.78472000000000     0.90606000000000
H2     H      0.32347000000000     0.10162000000000     0.08613000000000
H2     H      0.67653000000000     0.89838000000000     0.91387000000000
C3     C      0.90049000000000     0.20574000000000     0.12339000000000
C3     C      0.09951000000000     0.79426000000000     0.87661000000000
H4     H      0.93048000000000     0.06999000000000     0.22878000000000
H4     H      0.06952000000000     0.93001000000000     0.77122000000000
H5     H      0.71461000000000     0.26167000000000     0.93171000000000
H5     H      0.28539000000000     0.73833000000000     0.06829000000000
C6     C      0.22982000000000     0.28743000000000     0.34142000000000
C6     C      0.77018000000000     0.71257000000000     0.65858000000000
H7     H      0.38529000000000     0.18452000000000     0.53244000000000
H7     H      0.61471000000000     0.81548000000000     0.46756000000000
H8     H      0.28797000000000     0.40321000000000     0.31069000000000
H8     H      0.71203000000000     0.59679000000000     0.68931000000000
C9     C      0.91045000000000     0.33255000000000     0.32180000000000
C9     C      0.08955000000000     0.66745000000000     0.67820000000000
H10    H      0.87994000000000     0.29035000000000     0.51286000000000
H10    H      0.12006000000000     0.70965000000000     0.48714000000000
H11    H      0.76756000000000     0.47589000000000     0.21524000000000
H11    H      0.23244000000000     0.52411000000000     0.78476000000000
