data_default
_cell_volume           743.183226
_symmetry_space_group_name_H-M 'P 1'
_symmetry_Int_Tables_number 1
loop_
_symmetry_equiv_pos_site_id
_symmetry_equiv_pos_as_xyz
1 x,y,z
_cell_length_a        20.5240000000
_cell_length_b         4.2664000000
_cell_length_c        26.8938000000
_cell_angle_alpha        90.0000
_cell_angle_beta       161.6037
_cell_angle_gamma        90.0000
_cell_formula_units_Z 1
loop_
_atom_site_label
_atom_site_type_symbol
_atom_site_fract_x
_atom_site_fract_y
_atom_site_fract_z
C78    C      0.98747000000000     0.48533000000000     0.81579000000000
C78    C      0.48747000000000     0.98533000000000     0.81579000000000
C78    C      0.01253000000000     0.48533000000000     0.68421000000000
C78    C      0.51253000000000     0.98533000000000     0.68421000000000
C78    C      0.01253000000000     0.51467000000000     0.18421000000000
C78    C      0.51253000000000     0.01467000000000     0.18421000000000
C78    C      0.98747000000000     0.51467000000000     0.31579000000000
C78    C      0.48747000000000     0.01467000000000     0.31579000000000
C79    C      0.77221000000000     0.48868000000000     0.68455000000000
C79    C      0.27221000000000     0.98868000000000     0.68455000000000
C79    C      0.22779000000000     0.48868000000000     0.81545000000000
C79    C      0.72779000000000     0.98868000000000     0.81545000000000
C79    C      0.22779000000000     0.51132000000000     0.31545000000000
C79    C      0.72779000000000     0.01132000000000     0.31545000000000
C79    C      0.77221000000000     0.51132000000000     0.18455000000000
C79    C      0.27221000000000     0.01132000000000     0.18455000000000
H80    H      0.01358000000000     0.65484000000000     0.80470000000000
H80    H      0.51358000000000     0.15484000000000     0.80470000000000
H80    H      0.98642000000000     0.65484000000000     0.69530000000000
H80    H      0.48642000000000     0.15484000000000     0.69530000000000
H80    H      0.98642000000000     0.34516000000000     0.19530000000000
H80    H      0.48642000000000     0.84516000000000     0.19530000000000
H80    H      0.01358000000000     0.34516000000000     0.30470000000000
H80    H      0.51358000000000     0.84516000000000     0.30470000000000
H81    H      0.03797000000000     0.25415000000000     0.83897000000000
H81    H      0.53797000000000     0.75415000000000     0.83897000000000
H81    H      0.96203000000000     0.25415000000000     0.66103000000000
H81    H      0.46203000000000     0.75415000000000     0.66103000000000
H81    H      0.96203000000000     0.74585000000000     0.16103000000000
H81    H      0.46203000000000     0.24585000000000     0.16103000000000
H81    H      0.03797000000000     0.74585000000000     0.33897000000000
H81    H      0.53797000000000     0.24585000000000     0.33897000000000
H82    H      0.66650000000000     0.29304000000000     0.60078000000000
H82    H      0.16650000000000     0.79304000000000     0.60078000000000
H82    H      0.33350000000000     0.29304000000000     0.89922000000000
H82    H      0.83350000000000     0.79304000000000     0.89922000000000
H82    H      0.33350000000000     0.70696000000000     0.39922000000000
H82    H      0.83350000000000     0.20696000000000     0.39922000000000
H82    H      0.66650000000000     0.70696000000000     0.10078000000000
H82    H      0.16650000000000     0.20696000000000     0.10078000000000
H83    H      0.68957000000000     0.71030000000000     0.61798000000000
H83    H      0.18957000000000     0.21030000000000     0.61798000000000
H83    H      0.31043000000000     0.71030000000000     0.88202000000000
H83    H      0.81043000000000     0.21030000000000     0.88202000000000
H83    H      0.31043000000000     0.28970000000000     0.38202000000000
H83    H      0.81043000000000     0.78970000000000     0.38202000000000
H83    H      0.68957000000000     0.28970000000000     0.11798000000000
H83    H      0.18957000000000     0.78970000000000     0.11798000000000
N84    N      0.87142000000000     0.47544000000000     0.80536000000000
N84    N      0.37142000000000     0.97544000000000     0.80536000000000
N84    N      0.12858000000000     0.47544000000000     0.69464000000000
N84    N      0.62858000000000     0.97544000000000     0.69464000000000
N84    N      0.12858000000000     0.52456000000000     0.19464000000000
N84    N      0.62858000000000     0.02456000000000     0.19464000000000
N84    N      0.87142000000000     0.52456000000000     0.30536000000000
N84    N      0.37142000000000     0.02456000000000     0.30536000000000
C85    C      0.06859000000000     0.57594000000000     0.92659000000000
C85    C      0.56859000000000     0.07594000000000     0.92659000000000
C85    C      0.93141000000000     0.57594000000000     0.57341000000000
C85    C      0.43141000000000     0.07594000000000     0.57341000000000
C85    C      0.93141000000000     0.42406000000000     0.07341000000000
C85    C      0.43141000000000     0.92406000000000     0.07341000000000
C85    C      0.06859000000000     0.42406000000000     0.42659000000000
C85    C      0.56859000000000     0.92406000000000     0.42659000000000
H86    H      0.20285000000000     0.45088000000000     0.03882000000000
H86    H      0.70285000000000     0.95088000000000     0.03882000000000
H86    H      0.79715000000000     0.45088000000000     0.46118000000000
H86    H      0.29715000000000     0.95088000000000     0.46118000000000
H86    H      0.79715000000000     0.54912000000000     0.96118000000000
H86    H      0.29715000000000     0.04912000000000     0.96118000000000
H86    H      0.20285000000000     0.54912000000000     0.53882000000000
H86    H      0.70285000000000     0.04912000000000     0.53882000000000
H87    H      0.09595000000000     0.82989000000000     0.94984000000000
H87    H      0.59595000000000     0.32989000000000     0.94984000000000
H87    H      0.90405000000000     0.82989000000000     0.55016000000000
H87    H      0.40405000000000     0.32989000000000     0.55016000000000
H87    H      0.90405000000000     0.17011000000000     0.05016000000000
H87    H      0.40405000000000     0.67011000000000     0.05016000000000
H87    H      0.09595000000000     0.17011000000000     0.44984000000000
H87    H      0.59595000000000     0.67011000000000     0.44984000000000
H88    H      0.81123000000000     0.61726000000000     0.78793000000000
H88    H      0.31123000000000     0.11726000000000     0.78793000000000
H88    H      0.18877000000000     0.61726000000000     0.71207000000000
H88    H      0.68877000000000     0.11726000000000     0.71207000000000
H88    H      0.18877000000000     0.38274000000000     0.21207000000000
H88    H      0.68877000000000     0.88274000000000     0.21207000000000
H88    H      0.81123000000000     0.38274000000000     0.28793000000000
H88    H      0.31123000000000     0.88274000000000     0.28793000000000
