data_default
_cell_volume           373.319639
_symmetry_space_group_name_H-M 'P 1'
_symmetry_Int_Tables_number 1
loop_
_symmetry_equiv_pos_site_id
_symmetry_equiv_pos_as_xyz
1 x,y,z
_cell_length_a         9.8430000000
_cell_length_b         4.2785000000
_cell_length_c         8.8704000000
_cell_angle_alpha        90.0000
_cell_angle_beta        92.0623
_cell_angle_gamma        90.0000
_cell_formula_units_Z 1
loop_
_atom_site_label
_atom_site_type_symbol
_atom_site_fract_x
_atom_site_fract_y
_atom_site_fract_z
C34    C      0.85352000000000     0.96156000000000     0.15700000000000
C34    C      0.35352000000000     0.46156000000000     0.15700000000000
C34    C      0.14648000000000     0.96156000000000     0.84300000000000
C34    C      0.64648000000000     0.46156000000000     0.84300000000000
C35    C      0.71423000000000     0.05943000000000     0.21649000000000
C35    C      0.21423000000000     0.55943000000000     0.21649000000000
C35    C      0.28577000000000     0.05943000000000     0.78351000000000
C35    C      0.78577000000000     0.55943000000000     0.78351000000000
H36    H      0.90255000000000     0.12673000000000     0.08160000000000
H36    H      0.40255000000000     0.62673000000000     0.08160000000000
H36    H      0.09745000000000     0.12673000000000     0.91840000000000
H36    H      0.59745000000000     0.62673000000000     0.91840000000000
H37    H      0.85533000000000     0.72970000000000     0.10362000000000
H37    H      0.35533000000000     0.22970000000000     0.10362000000000
H37    H      0.14467000000000     0.72970000000000     0.89638000000000
H37    H      0.64467000000000     0.22970000000000     0.89638000000000
H38    H      0.62272000000000     0.93744000000000     0.17364000000000
H38    H      0.12272000000000     0.43744000000000     0.17364000000000
H38    H      0.37728000000000     0.93744000000000     0.82636000000000
H38    H      0.87728000000000     0.43744000000000     0.82636000000000
H39    H      0.69691000000000     0.31317000000000     0.20700000000000
H39    H      0.19691000000000     0.81317000000000     0.20700000000000
H39    H      0.30309000000000     0.31317000000000     0.79300000000000
H39    H      0.80309000000000     0.81317000000000     0.79300000000000
N40    N      0.75994000000000     0.96103000000000     0.36834000000000
N40    N      0.25994000000000     0.46103000000000     0.36834000000000
N40    N      0.24006000000000     0.96103000000000     0.63166000000000
N40    N      0.74006000000000     0.46103000000000     0.63166000000000
C41    C      0.90213000000000     0.96557000000000     0.32444000000000
C41    C      0.40213000000000     0.46557000000000     0.32444000000000
C41    C      0.09787000000000     0.96557000000000     0.67556000000000
C41    C      0.59787000000000     0.46557000000000     0.67556000000000
H42    H      0.96192000000000     0.76714000000000     0.36839000000000
H42    H      0.46192000000000     0.26714000000000     0.36839000000000
H42    H      0.03808000000000     0.76714000000000     0.63161000000000
H42    H      0.53808000000000     0.26714000000000     0.63161000000000
H43    H      0.95554000000000     0.18365000000000     0.35570000000000
H43    H      0.45554000000000     0.68365000000000     0.35570000000000
H43    H      0.04446000000000     0.18365000000000     0.64430000000000
H43    H      0.54446000000000     0.68365000000000     0.64430000000000
H44    H      0.73662000000000     0.10585000000000     0.45301000000000
H44    H      0.23662000000000     0.60585000000000     0.45301000000000
H44    H      0.26338000000000     0.10585000000000     0.54699000000000
H44    H      0.76338000000000     0.60585000000000     0.54699000000000
