data_default
_cell_volume           741.205162
_symmetry_space_group_name_H-M 'P 1'
_symmetry_Int_Tables_number 1
loop_
_symmetry_equiv_pos_site_id
_symmetry_equiv_pos_as_xyz
1 x,y,z
_cell_length_a         9.8365000000
_cell_length_b         4.2923000000
_cell_length_c        20.2079000000
_cell_angle_alpha        90.0000
_cell_angle_beta       119.6882
_cell_angle_gamma        90.0000
_cell_formula_units_Z 1
loop_
_atom_site_label
_atom_site_type_symbol
_atom_site_fract_x
_atom_site_fract_y
_atom_site_fract_z
C78    C      0.68859000000000     0.25380000000000     0.57713000000000
C78    C      0.18859000000000     0.75380000000000     0.57713000000000
C78    C      0.31141000000000     0.25380000000000     0.92287000000000
C78    C      0.81141000000000     0.75380000000000     0.92287000000000
C78    C      0.31141000000000     0.74620000000000     0.42287000000000
C78    C      0.81141000000000     0.24620000000000     0.42287000000000
C78    C      0.68859000000000     0.74620000000000     0.07713000000000
C78    C      0.18859000000000     0.24620000000000     0.07713000000000
C79    C      0.57932000000000     0.35660000000000     0.60762000000000
C79    C      0.07932000000000     0.85660000000000     0.60762000000000
C79    C      0.42068000000000     0.35660000000000     0.89238000000000
C79    C      0.92068000000000     0.85660000000000     0.89238000000000
C79    C      0.42068000000000     0.64340000000000     0.39238000000000
C79    C      0.92068000000000     0.14340000000000     0.39238000000000
C79    C      0.57932000000000     0.64340000000000     0.10762000000000
C79    C      0.07932000000000     0.14340000000000     0.10762000000000
H80    H      0.70546000000000     0.42022000000000     0.54062000000000
H80    H      0.20546000000000     0.92022000000000     0.54062000000000
H80    H      0.29454000000000     0.42022000000000     0.95938000000000
H80    H      0.79454000000000     0.92022000000000     0.95938000000000
H80    H      0.29454000000000     0.57978000000000     0.45938000000000
H80    H      0.79454000000000     0.07978000000000     0.45938000000000
H80    H      0.70546000000000     0.57978000000000     0.04062000000000
H80    H      0.20546000000000     0.07978000000000     0.04062000000000
H81    H      0.65999000000000     0.02659000000000     0.54819000000000
H81    H      0.15999000000000     0.52659000000000     0.54819000000000
H81    H      0.34001000000000     0.02659000000000     0.95181000000000
H81    H      0.84001000000000     0.52659000000000     0.95181000000000
H81    H      0.34001000000000     0.97341000000000     0.45181000000000
H81    H      0.84001000000000     0.47341000000000     0.45181000000000
H81    H      0.65999000000000     0.97341000000000     0.04819000000000
H81    H      0.15999000000000     0.47341000000000     0.04819000000000
H82    H      0.46511000000000     0.24227000000000     0.58515000000000
H82    H      0.96511000000000     0.74227000000000     0.58515000000000
H82    H      0.53489000000000     0.24227000000000     0.91485000000000
H82    H      0.03489000000000     0.74227000000000     0.91485000000000
H82    H      0.53489000000000     0.75773000000000     0.41485000000000
H82    H      0.03489000000000     0.25773000000000     0.41485000000000
H82    H      0.46511000000000     0.75773000000000     0.08515000000000
H82    H      0.96511000000000     0.25773000000000     0.08515000000000
H83    H      0.56173000000000     0.61078000000000     0.60441000000000
H83    H      0.06173000000000     0.11078000000000     0.60441000000000
H83    H      0.43827000000000     0.61078000000000     0.89559000000000
H83    H      0.93827000000000     0.11078000000000     0.89559000000000
H83    H      0.43827000000000     0.38922000000000     0.39559000000000
H83    H      0.93827000000000     0.88922000000000     0.39559000000000
H83    H      0.56173000000000     0.38922000000000     0.10441000000000
H83    H      0.06173000000000     0.88922000000000     0.10441000000000
N84    N      0.69596000000000     0.24801000000000     0.68372000000000
N84    N      0.19596000000000     0.74801000000000     0.68372000000000
N84    N      0.30404000000000     0.24801000000000     0.81628000000000
N84    N      0.80404000000000     0.74801000000000     0.81628000000000
N84    N      0.30404000000000     0.75199000000000     0.31628000000000
N84    N      0.80404000000000     0.25199000000000     0.31628000000000
N84    N      0.69596000000000     0.75199000000000     0.18372000000000
N84    N      0.19596000000000     0.25199000000000     0.18372000000000
C85    C      0.81740000000000     0.24426000000000     0.66174000000000
C85    C      0.31740000000000     0.74426000000000     0.66174000000000
C85    C      0.18260000000000     0.24426000000000     0.83826000000000
C85    C      0.68260000000000     0.74426000000000     0.83826000000000
C85    C      0.18260000000000     0.75574000000000     0.33826000000000
C85    C      0.68260000000000     0.25574000000000     0.33826000000000
C85    C      0.81740000000000     0.75574000000000     0.16174000000000
C85    C      0.31740000000000     0.25574000000000     0.16174000000000
H86    H      0.89404000000000     0.03961000000000     0.68265000000000
H86    H      0.39404000000000     0.53961000000000     0.68265000000000
H86    H      0.10596000000000     0.03961000000000     0.81735000000000
H86    H      0.60596000000000     0.53961000000000     0.81735000000000
H86    H      0.10596000000000     0.96039000000000     0.31735000000000
H86    H      0.60596000000000     0.46039000000000     0.31735000000000
H86    H      0.89404000000000     0.96039000000000     0.18265000000000
H86    H      0.39404000000000     0.46039000000000     0.18265000000000
H87    H      0.89051000000000     0.45562000000000     0.67905000000000
H87    H      0.39051000000000     0.95562000000000     0.67905000000000
H87    H      0.10949000000000     0.45562000000000     0.82095000000000
H87    H      0.60949000000000     0.95562000000000     0.82095000000000
H87    H      0.10949000000000     0.54438000000000     0.32095000000000
H87    H      0.60949000000000     0.04438000000000     0.32095000000000
H87    H      0.89051000000000     0.54438000000000     0.17905000000000
H87    H      0.39051000000000     0.04438000000000     0.17905000000000
H88    H      0.71601000000000     0.38998000000000     0.72728000000000
H88    H      0.21601000000000     0.88998000000000     0.72728000000000
H88    H      0.28399000000000     0.38998000000000     0.77272000000000
H88    H      0.78399000000000     0.88998000000000     0.77272000000000
H88    H      0.28399000000000     0.61002000000000     0.27272000000000
H88    H      0.78399000000000     0.11002000000000     0.27272000000000
H88    H      0.71601000000000     0.61002000000000     0.22728000000000
H88    H      0.21601000000000     0.11002000000000     0.22728000000000
