data_default
_cell_volume           709.925394
_symmetry_space_group_name_H-M 'P 1'
_symmetry_Int_Tables_number 1
loop_
_symmetry_equiv_pos_site_id
_symmetry_equiv_pos_as_xyz
1 x,y,z
_cell_length_a        25.6860000000
_cell_length_b         4.2260000000
_cell_length_c         9.4510000000
_cell_angle_alpha        90.0000
_cell_angle_beta       136.2110
_cell_angle_gamma        90.0000
_cell_formula_units_Z 1
loop_
_atom_site_label
_atom_site_type_symbol
_atom_site_fract_x
_atom_site_fract_y
_atom_site_fract_z
C1     C      0.41847000000000     0.78630000000000     0.95503000000000
C1     C      0.91847000000000     0.28630000000000     0.95503000000000
C1     C      0.58153000000000     0.21370000000000     0.04497000000000
C1     C      0.08153000000000     0.71370000000000     0.04497000000000
C1     C      0.58153000000000     0.78630000000000     0.54497000000000
C1     C      0.08153000000000     0.28630000000000     0.54497000000000
C1     C      0.41847000000000     0.21370000000000     0.45503000000000
C1     C      0.91847000000000     0.71370000000000     0.45503000000000
C2     C      0.38841000000000     0.69135000000000     0.03975000000000
C2     C      0.88841000000000     0.19135000000000     0.03975000000000
C2     C      0.61159000000000     0.30865000000000     0.96025000000000
C2     C      0.11159000000000     0.80865000000000     0.96025000000000
C2     C      0.61159000000000     0.69135000000000     0.46025000000000
C2     C      0.11159000000000     0.19135000000000     0.46025000000000
C2     C      0.38841000000000     0.30865000000000     0.53975000000000
C2     C      0.88841000000000     0.80865000000000     0.53975000000000
N3     N      0.31048000000000     0.76213000000000     0.84836000000000
N3     N      0.81048000000000     0.26213000000000     0.84836000000000
N3     N      0.68952000000000     0.23787000000000     0.15164000000000
N3     N      0.18952000000000     0.73787000000000     0.15164000000000
N3     N      0.68952000000000     0.76213000000000     0.65164000000000
N3     N      0.18952000000000     0.26213000000000     0.65164000000000
N3     N      0.31048000000000     0.23787000000000     0.34836000000000
N3     N      0.81048000000000     0.73787000000000     0.34836000000000
C4     C      0.33707000000000     0.85745000000000     0.76032000000000
C4     C      0.83707000000000     0.35745000000000     0.76032000000000
C4     C      0.66293000000000     0.14255000000000     0.23968000000000
C4     C      0.16293000000000     0.64255000000000     0.23968000000000
C4     C      0.66293000000000     0.85745000000000     0.73968000000000
C4     C      0.16293000000000     0.35745000000000     0.73968000000000
C4     C      0.33707000000000     0.14255000000000     0.26032000000000
C4     C      0.83707000000000     0.64255000000000     0.26032000000000
H1     H      0.28227000000000     0.55607000000000     0.78332000000000
H1     H      0.78227000000000     0.05607000000000     0.78332000000000
H1     H      0.71773000000000     0.44393000000000     0.21668000000000
H1     H      0.21773000000000     0.94393000000000     0.21668000000000
H1     H      0.71773000000000     0.55607000000000     0.71668000000000
H1     H      0.21773000000000     0.05607000000000     0.71668000000000
H1     H      0.28227000000000     0.44393000000000     0.28332000000000
H1     H      0.78227000000000     0.94393000000000     0.28332000000000
H2     H      0.32723000000000     0.10717000000000     0.72309000000000
H2     H      0.82723000000000     0.60717000000000     0.72309000000000
H2     H      0.67277000000000     0.89283000000000     0.27691000000000
H2     H      0.17277000000000     0.39283000000000     0.27691000000000
H2     H      0.67277000000000     0.10717000000000     0.77691000000000
H2     H      0.17277000000000     0.60717000000000     0.77691000000000
H2     H      0.32723000000000     0.89283000000000     0.22309000000000
H2     H      0.82723000000000     0.39283000000000     0.22309000000000
H3     H      0.31515000000000     0.70812000000000     0.63380000000000
H3     H      0.81515000000000     0.20812000000000     0.63380000000000
H3     H      0.68485000000000     0.29188000000000     0.36620000000000
H3     H      0.18485000000000     0.79188000000000     0.36620000000000
H3     H      0.68485000000000     0.70812000000000     0.86620000000000
H3     H      0.18485000000000     0.20812000000000     0.86620000000000
H3     H      0.31515000000000     0.29188000000000     0.13380000000000
H3     H      0.81515000000000     0.79188000000000     0.13380000000000
H4     H      0.45349000000000     0.99591000000000     0.02713000000000
H4     H      0.95349000000000     0.49591000000000     0.02713000000000
H4     H      0.54651000000000     0.00409000000000     0.97287000000000
H4     H      0.04651000000000     0.50409000000000     0.97287000000000
H4     H      0.54651000000000     0.99591000000000     0.47287000000000
H4     H      0.04651000000000     0.49591000000000     0.47287000000000
H4     H      0.45349000000000     0.00409000000000     0.52713000000000
H4     H      0.95349000000000     0.50409000000000     0.52713000000000
H5     H      0.44081000000000     0.58844000000000     0.93937000000000
H5     H      0.94081000000000     0.08844000000000     0.93937000000000
H5     H      0.55919000000000     0.41156000000000     0.06063000000000
H5     H      0.05919000000000     0.91156000000000     0.06063000000000
H5     H      0.55919000000000     0.58844000000000     0.56063000000000
H5     H      0.05919000000000     0.08844000000000     0.56063000000000
H5     H      0.44081000000000     0.41156000000000     0.43937000000000
H5     H      0.94081000000000     0.91156000000000     0.43937000000000
H6     H      0.39708000000000     0.44300000000000     0.07988000000000
H6     H      0.89708000000000     0.94300000000000     0.07988000000000
H6     H      0.60292000000000     0.55700000000000     0.92012000000000
H6     H      0.10292000000000     0.05700000000000     0.92012000000000
H6     H      0.60292000000000     0.44300000000000     0.42012000000000
H6     H      0.10292000000000     0.94300000000000     0.42012000000000
H6     H      0.39708000000000     0.55700000000000     0.57988000000000
H6     H      0.89708000000000     0.05700000000000     0.57988000000000
H7     H      0.40769000000000     0.84670000000000     0.16120000000000
H7     H      0.90769000000000     0.34670000000000     0.16120000000000
H7     H      0.59231000000000     0.15330000000000     0.83880000000000
H7     H      0.09231000000000     0.65330000000000     0.83880000000000
H7     H      0.59231000000000     0.84670000000000     0.33880000000000
H7     H      0.09231000000000     0.34670000000000     0.33880000000000
H7     H      0.40769000000000     0.15330000000000     0.66120000000000
H7     H      0.90769000000000     0.65330000000000     0.66120000000000
