data_default
_cell_volume           355.262911
_symmetry_space_group_name_H-M 'P 1'
_symmetry_Int_Tables_number 1
loop_
_symmetry_equiv_pos_site_id
_symmetry_equiv_pos_as_xyz
1 x,y,z
_cell_length_a         9.6790000000
_cell_length_b         4.2130000000
_cell_length_c        12.9610000000
_cell_angle_alpha        90.0000
_cell_angle_beta       137.7640
_cell_angle_gamma        90.0000
_cell_formula_units_Z 1
loop_
_atom_site_label
_atom_site_type_symbol
_atom_site_fract_x
_atom_site_fract_y
_atom_site_fract_z
C1     C      0.28877000000000     0.00926000000000     0.15597000000000
C1     C      0.78877000000000     0.50926000000000     0.15597000000000
C1     C      0.71123000000000     0.00926000000000     0.84403000000000
C1     C      0.21123000000000     0.50926000000000     0.84403000000000
C2     C      0.40995000000000     0.92812000000000     0.31911000000000
C2     C      0.90995000000000     0.42812000000000     0.31911000000000
C2     C      0.59005000000000     0.92812000000000     0.68089000000000
C2     C      0.09005000000000     0.42812000000000     0.68089000000000
N3     N      0.60755000000000     0.00007000000000     0.37983000000000
N3     N      0.10755000000000     0.50007000000000     0.37983000000000
N3     N      0.39245000000000     0.00007000000000     0.62017000000000
N3     N      0.89245000000000     0.50007000000000     0.62017000000000
C4     C      0.49676000000000     0.07987000000000     0.22380000000000
C4     C      0.99676000000000     0.57987000000000     0.22380000000000
C4     C      0.50324000000000     0.07987000000000     0.77620000000000
C4     C      0.00324000000000     0.57987000000000     0.77620000000000
H1     H      0.66278000000000     0.20245000000000     0.44140000000000
H1     H      0.16278000000000     0.70245000000000     0.44140000000000
H1     H      0.33722000000000     0.20245000000000     0.55860000000000
H1     H      0.83722000000000     0.70245000000000     0.55860000000000
H2     H      0.53570000000000     0.91688000000000     0.18375000000000
H2     H      0.03570000000000     0.41688000000000     0.18375000000000
H2     H      0.46430000000000     0.91688000000000     0.81625000000000
H2     H      0.96430000000000     0.41688000000000     0.81625000000000
H3     H      0.51449000000000     0.32682000000000     0.21222000000000
H3     H      0.01449000000000     0.82682000000000     0.21222000000000
H3     H      0.48551000000000     0.32682000000000     0.78778000000000
H3     H      0.98551000000000     0.82682000000000     0.78778000000000
H4     H      0.21373000000000     0.80544000000000     0.08024000000000
H4     H      0.71373000000000     0.30544000000000     0.08024000000000
H4     H      0.78627000000000     0.80544000000000     0.91976000000000
H4     H      0.28627000000000     0.30544000000000     0.91976000000000
H5     H      0.19435000000000     0.21911000000000     0.11283000000000
H5     H      0.69435000000000     0.71911000000000     0.11283000000000
H5     H      0.80565000000000     0.21911000000000     0.88717000000000
H5     H      0.30565000000000     0.71911000000000     0.88717000000000
H6     H      0.37596000000000     0.08451000000000     0.36440000000000
H6     H      0.87596000000000     0.58451000000000     0.36440000000000
H6     H      0.62404000000000     0.08451000000000     0.63560000000000
H6     H      0.12404000000000     0.58451000000000     0.63560000000000
H7     H      0.39967000000000     0.67894000000000     0.33326000000000
H7     H      0.89967000000000     0.17894000000000     0.33326000000000
H7     H      0.60033000000000     0.67894000000000     0.66674000000000
H7     H      0.10033000000000     0.17894000000000     0.66674000000000
