data_default
_cell_volume           699.677718
_symmetry_space_group_name_H-M 'P 1'
_symmetry_Int_Tables_number 1
loop_
_symmetry_equiv_pos_site_id
_symmetry_equiv_pos_as_xyz
1 x,y,z
_cell_length_a         9.8190000000
_cell_length_b         4.2120000000
_cell_length_c        19.8310000000
_cell_angle_alpha        90.0000
_cell_angle_beta       121.4500
_cell_angle_gamma        90.0000
_cell_formula_units_Z 1
loop_
_atom_site_label
_atom_site_type_symbol
_atom_site_fract_x
_atom_site_fract_y
_atom_site_fract_z
C1     C      0.19984000000000     0.81252000000000     0.57584000000000
C1     C      0.69984000000000     0.31252000000000     0.57584000000000
C1     C      0.80016000000000     0.18748000000000     0.42416000000000
C1     C      0.30016000000000     0.68748000000000     0.42416000000000
C1     C      0.80016000000000     0.81252000000000     0.92416000000000
C1     C      0.30016000000000     0.31252000000000     0.92416000000000
C1     C      0.19984000000000     0.18748000000000     0.07584000000000
C1     C      0.69984000000000     0.68748000000000     0.07584000000000
C2     C      0.33548000000000     0.74993000000000     0.65953000000000
C2     C      0.83548000000000     0.24993000000000     0.65953000000000
C2     C      0.66452000000000     0.25007000000000     0.34047000000000
C2     C      0.16452000000000     0.75007000000000     0.34047000000000
C2     C      0.66452000000000     0.74993000000000     0.84047000000000
C2     C      0.16452000000000     0.24993000000000     0.84047000000000
C2     C      0.33548000000000     0.25007000000000     0.15953000000000
C2     C      0.83548000000000     0.75007000000000     0.15953000000000
N3     N      0.24333000000000     0.85524000000000     0.69426000000000
N3     N      0.74333000000000     0.35524000000000     0.69426000000000
N3     N      0.75667000000000     0.14476000000000     0.30574000000000
N3     N      0.25667000000000     0.64476000000000     0.30574000000000
N3     N      0.75667000000000     0.85524000000000     0.80574000000000
N3     N      0.25667000000000     0.35524000000000     0.80574000000000
N3     N      0.24333000000000     0.14476000000000     0.19426000000000
N3     N      0.74333000000000     0.64476000000000     0.19426000000000
C4     C      0.10920000000000     0.92036000000000     0.61440000000000
C4     C      0.60920000000000     0.42036000000000     0.61440000000000
C4     C      0.89080000000000     0.07964000000000     0.38560000000000
C4     C      0.39080000000000     0.57964000000000     0.38560000000000
C4     C      0.89080000000000     0.92036000000000     0.88560000000000
C4     C      0.39080000000000     0.42036000000000     0.88560000000000
C4     C      0.10920000000000     0.07964000000000     0.11440000000000
C4     C      0.60920000000000     0.57964000000000     0.11440000000000
H1     H      0.21604000000000     0.66338000000000     0.71542000000000
H1     H      0.71604000000000     0.16338000000000     0.71542000000000
H1     H      0.78396000000000     0.33662000000000     0.28458000000000
H1     H      0.28396000000000     0.83662000000000     0.28458000000000
H1     H      0.78396000000000     0.66338000000000     0.78458000000000
H1     H      0.28396000000000     0.16338000000000     0.78458000000000
H1     H      0.21604000000000     0.33662000000000     0.21542000000000
H1     H      0.71604000000000     0.83662000000000     0.21542000000000
H2     H      0.08195000000000     0.17168000000000     0.60622000000000
H2     H      0.58195000000000     0.67168000000000     0.60622000000000
H2     H      0.91805000000000     0.82832000000000     0.39378000000000
H2     H      0.41805000000000     0.32832000000000     0.39378000000000
H2     H      0.91805000000000     0.17168000000000     0.89378000000000
H2     H      0.41805000000000     0.67168000000000     0.89378000000000
H2     H      0.08195000000000     0.82832000000000     0.10622000000000
H2     H      0.58195000000000     0.32832000000000     0.10622000000000
H3     H      0.00628000000000     0.77319000000000     0.59857000000000
H3     H      0.50628000000000     0.27319000000000     0.59857000000000
H3     H      0.99372000000000     0.22681000000000     0.40143000000000
H3     H      0.49372000000000     0.72681000000000     0.40143000000000
H3     H      0.99372000000000     0.77319000000000     0.90143000000000
H3     H      0.49372000000000     0.27319000000000     0.90143000000000
H3     H      0.00628000000000     0.22681000000000     0.09857000000000
H3     H      0.50628000000000     0.72681000000000     0.09857000000000
H4     H      0.22474000000000     0.00374000000000     0.54730000000000
H4     H      0.72474000000000     0.50374000000000     0.54730000000000
H4     H      0.77526000000000     0.99626000000000     0.45270000000000
H4     H      0.27526000000000     0.49626000000000     0.45270000000000
H4     H      0.77526000000000     0.00374000000000     0.95270000000000
H4     H      0.27526000000000     0.50374000000000     0.95270000000000
H4     H      0.22474000000000     0.99626000000000     0.04730000000000
H4     H      0.72474000000000     0.49626000000000     0.04730000000000
H5     H      0.15163000000000     0.59749000000000     0.54142000000000
H5     H      0.65163000000000     0.09749000000000     0.54142000000000
H5     H      0.84837000000000     0.40251000000000     0.45858000000000
H5     H      0.34837000000000     0.90251000000000     0.45858000000000
H5     H      0.84837000000000     0.59749000000000     0.95858000000000
H5     H      0.34837000000000     0.09749000000000     0.95858000000000
H5     H      0.15163000000000     0.40251000000000     0.04142000000000
H5     H      0.65163000000000     0.90251000000000     0.04142000000000
H6     H      0.36754000000000     0.50116000000000     0.67064000000000
H6     H      0.86754000000000     0.00116000000000     0.67064000000000
H6     H      0.63246000000000     0.49884000000000     0.32936000000000
H6     H      0.13246000000000     0.99884000000000     0.32936000000000
H6     H      0.63246000000000     0.50116000000000     0.82936000000000
H6     H      0.13246000000000     0.00116000000000     0.82936000000000
H6     H      0.36754000000000     0.49884000000000     0.17064000000000
H6     H      0.86754000000000     0.99884000000000     0.17064000000000
H7     H      0.43678000000000     0.90443000000000     0.67703000000000
H7     H      0.93678000000000     0.40443000000000     0.67703000000000
H7     H      0.56322000000000     0.09557000000000     0.32297000000000
H7     H      0.06322000000000     0.59557000000000     0.32297000000000
H7     H      0.56322000000000     0.90443000000000     0.82297000000000
H7     H      0.06322000000000     0.40443000000000     0.82297000000000
H7     H      0.43678000000000     0.09557000000000     0.17703000000000
H7     H      0.93678000000000     0.59557000000000     0.17703000000000
