data_default
_cell_volume           390.580774
_symmetry_space_group_name_H-M 'P 1'
_symmetry_Int_Tables_number 1
loop_
_symmetry_equiv_pos_site_id
_symmetry_equiv_pos_as_xyz
1 x,y,z
_cell_length_a         7.9140000000
_cell_length_b         4.4320000000
_cell_length_c        11.1730000000
_cell_angle_alpha        90.0000
_cell_angle_beta        85.3130
_cell_angle_gamma        90.0000
_cell_formula_units_Z 1
loop_
_atom_site_label
_atom_site_type_symbol
_atom_site_fract_x
_atom_site_fract_y
_atom_site_fract_z
N1     N      0.39348000000000     0.21967000000000     0.29050000000000
N1     N      0.60652000000000     0.78033000000000     0.70950000000000
N1     N      0.60652000000000     0.71967000000000     0.20950000000000
N1     N      0.39348000000000     0.28033000000000     0.79050000000000
H2     H      0.46931000000000     0.04863000000000     0.25937000000000
H2     H      0.53069000000000     0.95137000000000     0.74063000000000
H2     H      0.53069000000000     0.54863000000000     0.24063000000000
H2     H      0.46931000000000     0.45137000000000     0.75937000000000
C3     C      0.32503000000000     0.18999000000000     0.41602000000000
C3     C      0.67497000000000     0.81001000000000     0.58398000000000
C3     C      0.67497000000000     0.68999000000000     0.08398000000000
C3     C      0.32503000000000     0.31001000000000     0.91602000000000
H4     H      0.38614000000000     0.33220000000000     0.47848000000000
H4     H      0.61386000000000     0.66780000000000     0.52152000000000
H4     H      0.61386000000000     0.83220000000000     0.02152000000000
H4     H      0.38614000000000     0.16780000000000     0.97848000000000
H5     H      0.32252000000000     0.95982000000000     0.44979000000000
H5     H      0.67748000000000     0.04018000000000     0.55021000000000
H5     H      0.67748000000000     0.45982000000000     0.05021000000000
H5     H      0.32252000000000     0.54018000000000     0.94979000000000
C6     C      0.22201000000000     0.21658000000000     0.24956000000000
C6     C      0.77799000000000     0.78342000000000     0.75044000000000
C6     C      0.77799000000000     0.71658000000000     0.25044000000000
C6     C      0.22201000000000     0.28342000000000     0.74956000000000
H7     H      0.18103000000000     0.99637000000000     0.22033000000000
H7     H      0.81897000000000     0.00363000000000     0.77967000000000
H7     H      0.81897000000000     0.49637000000000     0.27967000000000
H7     H      0.18103000000000     0.50363000000000     0.72033000000000
H8     H      0.20164000000000     0.38034000000000     0.18020000000000
H8     H      0.79836000000000     0.61966000000000     0.81980000000000
H8     H      0.79836000000000     0.88034000000000     0.31980000000000
H8     H      0.20164000000000     0.11966000000000     0.68020000000000
C9     C      0.15112000000000     0.29176000000000     0.37845000000000
C9     C      0.84888000000000     0.70824000000000     0.62155000000000
C9     C      0.84888000000000     0.79176000000000     0.12155000000000
C9     C      0.15112000000000     0.20824000000000     0.87845000000000
H10    H      0.12910000000000     0.53070000000000     0.39193000000000
H10    H      0.87090000000000     0.46930000000000     0.60807000000000
H10    H      0.87090000000000     0.03070000000000     0.10807000000000
H10    H      0.12910000000000     0.96930000000000     0.89193000000000
H11    H      0.04077000000000     0.16778000000000     0.41450000000000
H11    H      0.95923000000000     0.83222000000000     0.58550000000000
H11    H      0.95923000000000     0.66778000000000     0.08550000000000
H11    H      0.04077000000000     0.33222000000000     0.91450000000000
