data_default
_cell_volume           186.144910
_symmetry_space_group_name_H-M 'P 1'
_symmetry_Int_Tables_number 1
loop_
_symmetry_equiv_pos_site_id
_symmetry_equiv_pos_as_xyz
1 x,y,z
_cell_length_a         5.2982000000
_cell_length_b         6.6819000000
_cell_length_c         7.0142000000
_cell_angle_alpha        90.0000
_cell_angle_beta       131.4420
_cell_angle_gamma        90.0000
_cell_formula_units_Z 1
loop_
_atom_site_label
_atom_site_type_symbol
_atom_site_fract_x
_atom_site_fract_y
_atom_site_fract_z
N4     N      0.00009000000000     0.10005000000000     0.93621000000000
N4     N      0.00009000000000     0.89995000000000     0.43621000000000
C1     C      0.99992000000000     0.36489000000000     0.10277000000000
C1     C      0.99992000000000     0.63511000000000     0.60277000000000
C2     C      0.26530000000000     0.24748000000000     0.11864000000000
C2     C      0.26530000000000     0.75252000000000     0.61864000000000
C3     C      0.73468000000000     0.24735000000000     0.85339000000000
C3     C      0.73468000000000     0.75265000000000     0.35339000000000
H5     H      0.99996000000000     0.32326000000000     0.25350000000000
H5     H      0.99996000000000     0.67674000000000     0.75350000000000
H6     H      0.99981000000000     0.52787000000000     0.08990000000000
H6     H      0.99981000000000     0.47213000000000     0.58990000000000
H7     H      0.48110000000000     0.18414000000000     0.30319000000000
H7     H      0.48110000000000     0.81586000000000     0.80319000000000
H8     H      0.36019000000000     0.33544000000000     0.04457000000000
H8     H      0.36019000000000     0.66456000000000     0.54457000000000
H9     H      0.51899000000000     0.18389000000000     0.82225000000000
H9     H      0.51899000000000     0.81611000000000     0.32225000000000
H10    H      0.63963000000000     0.33526000000000     0.68437000000000
H10    H      0.63963000000000     0.66474000000000     0.18437000000000
H11    H      0.00010000000000     0.05371000000000     0.79789000000000
H11    H      0.00010000000000     0.94629000000000     0.29789000000000
