data_default
_cell_volume           385.691557
_symmetry_space_group_name_H-M 'P 1'
_symmetry_Int_Tables_number 1
loop_
_symmetry_equiv_pos_site_id
_symmetry_equiv_pos_as_xyz
1 x,y,z
_cell_length_a         5.1525000000
_cell_length_b        13.4970000000
_cell_length_c         6.0914000000
_cell_angle_alpha        90.0000
_cell_angle_beta       114.4290
_cell_angle_gamma        90.0000
_cell_formula_units_Z 1
loop_
_atom_site_label
_atom_site_type_symbol
_atom_site_fract_x
_atom_site_fract_y
_atom_site_fract_z
N4     N      0.35374000000000     0.19218000000000     0.45062000000000
N4     N      0.85374000000000     0.69218000000000     0.45062000000000
N4     N      0.35374000000000     0.80782000000000     0.95062000000000
N4     N      0.85374000000000     0.30782000000000     0.95062000000000
C1     C      0.68611000000000     0.08635000000000     0.59369000000000
C1     C      0.18611000000000     0.58635000000000     0.59369000000000
C1     C      0.68611000000000     0.91365000000000     0.09369000000000
C1     C      0.18611000000000     0.41365000000000     0.09369000000000
C2     C      0.59379000000000     0.16414000000000     0.38860000000000
C2     C      0.09379000000000     0.66414000000000     0.38860000000000
C2     C      0.59379000000000     0.83586000000000     0.88860000000000
C2     C      0.09379000000000     0.33586000000000     0.88860000000000
C3     C      0.38002000000000     0.09669000000000     0.57889000000000
C3     C      0.88002000000000     0.59669000000000     0.57889000000000
C3     C      0.38002000000000     0.90331000000000     0.07889000000000
C3     C      0.88002000000000     0.40331000000000     0.07889000000000
H5     H      0.84760000000000     0.11488000000000     0.76305000000000
H5     H      0.34760000000000     0.61488000000000     0.76305000000000
H5     H      0.84760000000000     0.88512000000000     0.26305000000000
H5     H      0.34760000000000     0.38512000000000     0.26305000000000
H6     H      0.75126000000000     0.01348000000000     0.55660000000000
H6     H      0.25126000000000     0.51348000000000     0.55660000000000
H6     H      0.75126000000000     0.98652000000000     0.05660000000000
H6     H      0.25126000000000     0.48652000000000     0.05660000000000
H7     H      0.74197000000000     0.22472000000000     0.40340000000000
H7     H      0.24197000000000     0.72472000000000     0.40340000000000
H7     H      0.74197000000000     0.77528000000000     0.90340000000000
H7     H      0.24197000000000     0.27528000000000     0.90340000000000
H8     H      0.52874000000000     0.12918000000000     0.21025000000000
H8     H      0.02874000000000     0.62918000000000     0.21025000000000
H8     H      0.52874000000000     0.87082000000000     0.71025000000000
H8     H      0.02874000000000     0.37082000000000     0.71025000000000
H9     H      0.35436000000000     0.10244000000000     0.74842000000000
H9     H      0.85436000000000     0.60244000000000     0.74842000000000
H9     H      0.35436000000000     0.89756000000000     0.24842000000000
H9     H      0.85436000000000     0.39756000000000     0.24842000000000
H10    H      0.23846000000000     0.03760000000000     0.46865000000000
H10    H      0.73846000000000     0.53760000000000     0.46865000000000
H10    H      0.23846000000000     0.96240000000000     0.96865000000000
H10    H      0.73846000000000     0.46240000000000     0.96865000000000
H11    H      0.16370000000000     0.20336000000000     0.30721000000000
H11    H      0.66370000000000     0.70336000000000     0.30721000000000
H11    H      0.16370000000000     0.79664000000000     0.80721000000000
H11    H      0.66370000000000     0.29664000000000     0.80721000000000
