data_default
_cell_volume           389.888914
_symmetry_space_group_name_H-M 'P 1'
_symmetry_Int_Tables_number 1
loop_
_symmetry_equiv_pos_site_id
_symmetry_equiv_pos_as_xyz
1 x,y,z
_cell_length_a         5.5880000000
_cell_length_b         4.4160000000
_cell_length_c        15.8620000000
_cell_angle_alpha        90.0000
_cell_angle_beta        84.9300
_cell_angle_gamma        90.0000
_cell_formula_units_Z 1
loop_
_atom_site_label
_atom_site_type_symbol
_atom_site_fract_x
_atom_site_fract_y
_atom_site_fract_z
N1     N      0.92228000000000     0.76091000000000     0.80392000000000
N1     N      0.07772000000000     0.23909000000000     0.19608000000000
N1     N      0.07772000000000     0.26091000000000     0.69608000000000
N1     N      0.92228000000000     0.73909000000000     0.30392000000000
H2     H      0.98017000000000     0.93449000000000     0.76591000000000
H2     H      0.01983000000000     0.06551000000000     0.23409000000000
H2     H      0.01983000000000     0.43449000000000     0.73409000000000
H2     H      0.98017000000000     0.56551000000000     0.26591000000000
C3     C      0.66986000000000     0.77813000000000     0.83797000000000
C3     C      0.33014000000000     0.22187000000000     0.16203000000000
C3     C      0.33014000000000     0.27813000000000     0.66203000000000
C3     C      0.66986000000000     0.72187000000000     0.33797000000000
H4     H      0.55103000000000     0.62777000000000     0.80741000000000
H4     H      0.44897000000000     0.37223000000000     0.19259000000000
H4     H      0.44897000000000     0.12777000000000     0.69259000000000
H4     H      0.55103000000000     0.87223000000000     0.30741000000000
H5     H      0.59449000000000     0.00528000000000     0.83902000000000
H5     H      0.40551000000000     0.99472000000000     0.16098000000000
H5     H      0.40551000000000     0.50528000000000     0.66098000000000
H5     H      0.59449000000000     0.49472000000000     0.33902000000000
C6     C      0.00233000000000     0.76880000000000     0.88952000000000
C6     C      0.99767000000000     0.23120000000000     0.11048000000000
C6     C      0.99767000000000     0.26880000000000     0.61048000000000
C6     C      0.00233000000000     0.73120000000000     0.38952000000000
H7     H      0.05421000000000     0.99258000000000     0.90995000000000
H7     H      0.94579000000000     0.00742000000000     0.09005000000000
H7     H      0.94579000000000     0.49258000000000     0.59005000000000
H7     H      0.05421000000000     0.50742000000000     0.40995000000000
H8     H      0.14537000000000     0.61096000000000     0.89973000000000
H8     H      0.85463000000000     0.38904000000000     0.10027000000000
H8     H      0.85463000000000     0.11096000000000     0.60027000000000
H8     H      0.14537000000000     0.88904000000000     0.39973000000000
C9     C      0.74621000000000     0.68207000000000     0.92493000000000
C9     C      0.25379000000000     0.31793000000000     0.07507000000000
C9     C      0.25379000000000     0.18207000000000     0.57507000000000
C9     C      0.74621000000000     0.81793000000000     0.42493000000000
H10    H      0.72603000000000     0.44147000000000     0.93629000000000
H10    H      0.27397000000000     0.55853000000000     0.06371000000000
H10    H      0.27397000000000     0.94147000000000     0.56371000000000
H10    H      0.72603000000000     0.05853000000000     0.43629000000000
H11    H      0.66911000000000     0.80487000000000     0.97978000000000
H11    H      0.33089000000000     0.19513000000000     0.02022000000000
H11    H      0.33089000000000     0.30487000000000     0.52022000000000
H11    H      0.66911000000000     0.69513000000000     0.47978000000000
