data_default
_cell_volume           166.933477
_symmetry_space_group_name_H-M 'P 1'
_symmetry_Int_Tables_number 1
loop_
_symmetry_equiv_pos_site_id
_symmetry_equiv_pos_as_xyz
1 x,y,z
_cell_length_a         3.7918000000
_cell_length_b         6.3830000000
_cell_length_c         7.1441000000
_cell_angle_alpha        90.0000
_cell_angle_beta       105.1070
_cell_angle_gamma        90.0000
_cell_formula_units_Z 1
loop_
_atom_site_label
_atom_site_type_symbol
_atom_site_fract_x
_atom_site_fract_y
_atom_site_fract_z
H1     H      0.86641000000000     0.56118000000000     0.76819000000000
H1     H      0.86641000000000     0.43882000000000     0.26819000000000
C2     C      0.85982000000000     0.40092000000000     0.71888000000000
C2     C      0.85982000000000     0.59908000000000     0.21888000000000
C3     C      0.09594000000000     0.25602000000000     0.81354000000000
C3     C      0.09594000000000     0.74398000000000     0.31354000000000
H4     H      0.65248000000000     0.36086000000000     0.58818000000000
H4     H      0.65248000000000     0.63914000000000     0.08818000000000
H5     H      0.30600000000000     0.29149000000000     0.94436000000000
H5     H      0.30600000000000     0.70851000000000     0.44436000000000
C6     C      0.07736000000000     0.03916000000000     0.74148000000000
C6     C      0.07736000000000     0.96084000000000     0.24148000000000
O7     O      0.28413000000000     0.89891000000000     0.82050000000000
O7     O      0.28413000000000     0.10109000000000     0.32050000000000
H8     H      0.85865000000000     0.00950000000000     0.60760000000000
H8     H      0.85865000000000     0.99050000000000     0.10760000000000
