data_default
_cell_volume           646.680280
_symmetry_space_group_name_H-M 'P 1'
_symmetry_Int_Tables_number 1
loop_
_symmetry_equiv_pos_site_id
_symmetry_equiv_pos_as_xyz
1 x,y,z
_cell_length_a         6.9700000000
_cell_length_b         9.5140000000
_cell_length_c         9.7520000000
_cell_angle_alpha        90.0000
_cell_angle_beta        90.0000
_cell_angle_gamma        90.0000
_cell_formula_units_Z 1
loop_
_atom_site_label
_atom_site_type_symbol
_atom_site_fract_x
_atom_site_fract_y
_atom_site_fract_z
C1     C      0.88030000000000     0.21310000000000     0.48000000000000
C1     C      0.11970000000000     0.78690000000000     0.52000000000000
C1     C      0.61970000000000     0.71310000000000     0.48000000000000
C1     C      0.38030000000000     0.28690000000000     0.52000000000000
C1     C      0.88030000000000     0.28690000000000     0.98000000000000
C1     C      0.11970000000000     0.71310000000000     0.02000000000000
C1     C      0.61970000000000     0.78690000000000     0.98000000000000
C1     C      0.38030000000000     0.21310000000000     0.02000000000000
C2     C      0.92030000000000     0.17170000000000     0.35680000000000
C2     C      0.07970000000000     0.82830000000000     0.64320000000000
C2     C      0.57970000000000     0.67170000000000     0.35680000000000
C2     C      0.42030000000000     0.32830000000000     0.64320000000000
C2     C      0.92030000000000     0.32830000000000     0.85680000000000
C2     C      0.07970000000000     0.67170000000000     0.14320000000000
C2     C      0.57970000000000     0.82830000000000     0.85680000000000
C2     C      0.42030000000000     0.17170000000000     0.14320000000000
C3     C      0.85810000000000     0.03780000000000     0.30710000000000
C3     C      0.14190000000000     0.96220000000000     0.69290000000000
C3     C      0.64190000000000     0.53780000000000     0.30710000000000
C3     C      0.35810000000000     0.46220000000000     0.69290000000000
C3     C      0.85810000000000     0.46220000000000     0.80710000000000
C3     C      0.14190000000000     0.53780000000000     0.19290000000000
C3     C      0.64190000000000     0.96220000000000     0.80710000000000
C3     C      0.35810000000000     0.03780000000000     0.19290000000000
O4     O      0.88890000000000     0.99289000000000     0.19511000000000
O4     O      0.11110000000000     0.00711000000000     0.80489000000000
O4     O      0.61110000000000     0.49289000000000     0.19511000000000
O4     O      0.38890000000000     0.50711000000000     0.80489000000000
O4     O      0.88890000000000     0.50711000000000     0.69511000000000
O4     O      0.11110000000000     0.49289000000000     0.30489000000000
O4     O      0.61110000000000     0.00711000000000     0.69511000000000
O4     O      0.38890000000000     0.99289000000000     0.30489000000000
H5     H      0.78500000000000     0.98580000000000     0.37560000000000
H5     H      0.21500000000000     0.01420000000000     0.62440000000000
H5     H      0.71500000000000     0.48580000000000     0.37560000000000
H5     H      0.28500000000000     0.51420000000000     0.62440000000000
H5     H      0.78500000000000     0.51420000000000     0.87560000000000
H5     H      0.21500000000000     0.48580000000000     0.12440000000000
H5     H      0.71500000000000     0.01420000000000     0.87560000000000
H5     H      0.28500000000000     0.98580000000000     0.12440000000000
H11    H      0.80700000000000     0.15470000000000     0.54070000000000
H11    H      0.19300000000000     0.84530000000000     0.45930000000000
H11    H      0.69300000000000     0.65470000000000     0.54070000000000
H11    H      0.30700000000000     0.34530000000000     0.45930000000000
H11    H      0.80700000000000     0.34530000000000     0.04070000000000
H11    H      0.19300000000000     0.65470000000000     0.95930000000000
H11    H      0.69300000000000     0.84530000000000     0.04070000000000
H11    H      0.30700000000000     0.15470000000000     0.95930000000000
H12    H      0.92400000000000     0.30250000000000     0.51600000000000
H12    H      0.07600000000000     0.69750000000000     0.48400000000000
H12    H      0.57600000000000     0.80250000000000     0.51600000000000
H12    H      0.42400000000000     0.19750000000000     0.48400000000000
H12    H      0.92400000000000     0.19750000000000     0.01600000000000
H12    H      0.07600000000000     0.80250000000000     0.98400000000000
H12    H      0.57600000000000     0.69750000000000     0.01600000000000
H12    H      0.42400000000000     0.30250000000000     0.98400000000000
H2     H      0.98900000000000     0.23000000000000     0.29360000000000
H2     H      0.01100000000000     0.77000000000000     0.70640000000000
H2     H      0.51100000000000     0.73000000000000     0.29360000000000
H2     H      0.48900000000000     0.27000000000000     0.70640000000000
H2     H      0.98900000000000     0.27000000000000     0.79360000000000
H2     H      0.01100000000000     0.73000000000000     0.20640000000000
H2     H      0.51100000000000     0.77000000000000     0.79360000000000
H2     H      0.48900000000000     0.23000000000000     0.20640000000000
