data_default
_cell_volume           627.357595
_symmetry_space_group_name_H-M 'P 1'
_symmetry_Int_Tables_number 1
loop_
_symmetry_equiv_pos_site_id
_symmetry_equiv_pos_as_xyz
1 x,y,z
_cell_length_a         9.6180000000
_cell_length_b         9.5810000000
_cell_length_c         6.8080000000
_cell_angle_alpha        90.0000
_cell_angle_beta        90.0000
_cell_angle_gamma        90.0000
_cell_formula_units_Z 1
loop_
_atom_site_label
_atom_site_type_symbol
_atom_site_fract_x
_atom_site_fract_y
_atom_site_fract_z
C1     C      0.77550000000000     0.00740000000000     0.90500000000000
C1     C      0.22450000000000     0.99260000000000     0.09500000000000
C1     C      0.72450000000000     0.99260000000000     0.40500000000000
C1     C      0.27550000000000     0.49260000000000     0.09500000000000
C1     C      0.22450000000000     0.50740000000000     0.59500000000000
C1     C      0.72450000000000     0.50740000000000     0.90500000000000
C1     C      0.27550000000000     0.00740000000000     0.59500000000000
C1     C      0.77550000000000     0.49260000000000     0.40500000000000
C2     C      0.82290000000000     0.13770000000000     0.93500000000000
C2     C      0.17710000000000     0.86230000000000     0.06500000000000
C2     C      0.67710000000000     0.86230000000000     0.43500000000000
C2     C      0.32290000000000     0.36230000000000     0.06500000000000
C2     C      0.17710000000000     0.63770000000000     0.56500000000000
C2     C      0.67710000000000     0.63770000000000     0.93500000000000
C2     C      0.32290000000000     0.13770000000000     0.56500000000000
C2     C      0.82290000000000     0.36230000000000     0.43500000000000
C3     C      0.96020000000000     0.18030000000000     0.85830000000000
C3     C      0.03980000000000     0.81970000000000     0.14170000000000
C3     C      0.53980000000000     0.81970000000000     0.35830000000000
C3     C      0.46020000000000     0.31970000000000     0.14170000000000
C3     C      0.03980000000000     0.68030000000000     0.64170000000000
C3     C      0.53980000000000     0.68030000000000     0.85830000000000
C3     C      0.46020000000000     0.18030000000000     0.64170000000000
C3     C      0.96020000000000     0.31970000000000     0.35830000000000
O4     O      0.00980000000000     0.29640000000000     0.87980000000000
O4     O      0.99020000000000     0.70360000000000     0.12020000000000
O4     O      0.49020000000000     0.70360000000000     0.37980000000000
O4     O      0.50980000000000     0.20360000000000     0.12020000000000
O4     O      0.99020000000000     0.79640000000000     0.62020000000000
O4     O      0.49020000000000     0.79640000000000     0.87980000000000
O4     O      0.50980000000000     0.29640000000000     0.62020000000000
O4     O      0.00980000000000     0.20360000000000     0.37980000000000
H5     H      0.67520000000000     0.97320000000000     0.95970000000000
H5     H      0.32480000000000     0.02680000000000     0.04030000000000
H5     H      0.82480000000000     0.02680000000000     0.45970000000000
H5     H      0.17520000000000     0.52680000000000     0.04030000000000
H5     H      0.32480000000000     0.47320000000000     0.54030000000000
H5     H      0.82480000000000     0.47320000000000     0.95970000000000
H5     H      0.17520000000000     0.97320000000000     0.54030000000000
H5     H      0.67520000000000     0.52680000000000     0.45970000000000
H6     H      0.83740000000000     0.93200000000000     0.82390000000000
H6     H      0.16260000000000     0.06800000000000     0.17610000000000
H6     H      0.66260000000000     0.06800000000000     0.32390000000000
H6     H      0.33740000000000     0.56800000000000     0.17610000000000
H6     H      0.16260000000000     0.43200000000000     0.67610000000000
H6     H      0.66260000000000     0.43200000000000     0.82390000000000
H6     H      0.33740000000000     0.93200000000000     0.67610000000000
H6     H      0.83740000000000     0.56800000000000     0.32390000000000
H7     H      0.76370000000000     0.21560000000000     0.01550000000000
H7     H      0.23630000000000     0.78440000000000     0.98450000000000
H7     H      0.73630000000000     0.78440000000000     0.51550000000000
H7     H      0.26370000000000     0.28440000000000     0.98450000000000
H7     H      0.23630000000000     0.71560000000000     0.48450000000000
H7     H      0.73630000000000     0.71560000000000     0.01550000000000
H7     H      0.26370000000000     0.21560000000000     0.48450000000000
H7     H      0.76370000000000     0.28440000000000     0.51550000000000
H8     H      0.01720000000000     0.09760000000000     0.77710000000000
H8     H      0.98280000000000     0.90240000000000     0.22290000000000
H8     H      0.48280000000000     0.90240000000000     0.27710000000000
H8     H      0.51720000000000     0.40240000000000     0.22290000000000
H8     H      0.98280000000000     0.59760000000000     0.72290000000000
H8     H      0.48280000000000     0.59760000000000     0.77710000000000
H8     H      0.51720000000000     0.09760000000000     0.72290000000000
H8     H      0.01720000000000     0.40240000000000     0.27710000000000
