data_default
_cell_volume           171.547998
_symmetry_space_group_name_H-M 'P 1'
_symmetry_Int_Tables_number 1
loop_
_symmetry_equiv_pos_site_id
_symmetry_equiv_pos_as_xyz
1 x,y,z
_cell_length_a         3.8703600000
_cell_length_b         6.4074800000
_cell_length_c         7.2027600000
_cell_angle_alpha        90.0000
_cell_angle_beta        73.8200
_cell_angle_gamma        90.0000
_cell_formula_units_Z 1
loop_
_atom_site_label
_atom_site_type_symbol
_atom_site_fract_x
_atom_site_fract_y
_atom_site_fract_z
C1     C      0.05392700000000     0.03510600000000     0.34678500000000
C1     C      0.05392700000000     0.96489400000000     0.84678500000000
O2     O      0.26387600000000     0.90437000000000     0.26442900000000
O2     O      0.26387600000000     0.09563000000000     0.76442900000000
H3     H      0.83913200000000     0.99546100000000     0.47551400000000
H3     H      0.83913200000000     0.00453900000000     0.97551400000000
C4     C      0.06725100000000     0.25294700000000     0.28331200000000
C4     C      0.06725100000000     0.74705300000000     0.78331200000000
H5     H      0.28172800000000     0.28782400000000     0.15483100000000
H5     H      0.28172800000000     0.71217600000000     0.65483100000000
C6     C      0.83777800000000     0.40036400000000     0.37404800000000
C6     C      0.83777800000000     0.59963600000000     0.87404800000000
H7     H      0.85572300000000     0.55982600000000     0.32335200000000
H7     H      0.85572300000000     0.44017400000000     0.82335200000000
H8     H      0.62154100000000     0.36871900000000     0.50303500000000
H8     H      0.62154100000000     0.63128100000000     0.00303500000000
