data_default
_cell_volume           339.562397
_symmetry_space_group_name_H-M 'P 1'
_symmetry_Int_Tables_number 1
loop_
_symmetry_equiv_pos_site_id
_symmetry_equiv_pos_as_xyz
1 x,y,z
_cell_length_a        10.5831000000
_cell_length_b         4.1811000000
_cell_length_c         7.6739000000
_cell_angle_alpha        90.0000
_cell_angle_beta        90.0000
_cell_angle_gamma        90.0000
_cell_formula_units_Z 1
loop_
_atom_site_label
_atom_site_type_symbol
_atom_site_fract_x
_atom_site_fract_y
_atom_site_fract_z
C1     C      0.03147030000000     0.12753200000000     0.14228200000000
C1     C      0.96852970000000     0.87246800000000     0.64228200000000
C1     C      0.46852970000000     0.12753200000000     0.64228200000000
C1     C      0.53147030000000     0.87246800000000     0.14228200000000
C2     C      0.06338500000000     0.34310200000000     0.02055380000000
C2     C      0.93661500000000     0.65689800000000     0.52055380000000
C2     C      0.43661500000000     0.34310200000000     0.52055380000000
C2     C      0.56338500000000     0.65689800000000     0.02055380000000
C3     C      0.19707600000000     0.40224500000000     0.97867940000000
C3     C      0.80292400000000     0.59775500000000     0.47867940000000
C3     C      0.30292400000000     0.40224500000000     0.47867940000000
C3     C      0.69707600000000     0.59775500000000     0.97867940000000
O1     O      0.23311200000000     0.59533700000000     0.86911400000000
O1     O      0.76688800000000     0.40466300000000     0.36911400000000
O1     O      0.26688800000000     0.59533700000000     0.36911400000000
O1     O      0.73311200000000     0.40466300000000     0.86911400000000
H1     H      0.10330500000000     0.99410727000000     0.21162800000000
H1     H      0.89669500000000     0.00589273000000     0.71162800000000
H1     H      0.39669500000000     0.99410727000000     0.71162800000000
H1     H      0.60330500000000     0.00589273000000     0.21162800000000
H2     H      0.93424350000000     0.07886440000000     0.17589800000000
H2     H      0.06575650000000     0.92113560000000     0.67589800000000
H2     H      0.56575650000000     0.07886440000000     0.67589800000000
H2     H      0.43424350000000     0.92113560000000     0.17589800000000
H3     H      0.99362128000000     0.47977000000000     0.94922610000000
H3     H      0.00637872000000     0.52023000000000     0.44922610000000
H3     H      0.50637872000000     0.47977000000000     0.44922610000000
H3     H      0.49362128000000     0.52023000000000     0.94922610000000
H4     H      0.26521800000000     0.25747100000000     0.05447370000000
H4     H      0.73478200000000     0.74252900000000     0.55447370000000
H4     H      0.23478200000000     0.25747100000000     0.55447370000000
H4     H      0.76521800000000     0.74252900000000     0.05447370000000
