data_default
_cell_volume           334.439715
_symmetry_space_group_name_H-M 'P 1'
_symmetry_Int_Tables_number 1
loop_
_symmetry_equiv_pos_site_id
_symmetry_equiv_pos_as_xyz
1 x,y,z
_cell_length_a         6.9062000000
_cell_length_b         6.9801000000
_cell_length_c         7.0237000000
_cell_angle_alpha        90.0000
_cell_angle_beta        98.9740
_cell_angle_gamma        90.0000
_cell_formula_units_Z 1
loop_
_atom_site_label
_atom_site_type_symbol
_atom_site_fract_x
_atom_site_fract_y
_atom_site_fract_z
C1     C      0.74142000000000     0.46993000000000     0.28525000000000
C1     C      0.25858000000000     0.96993000000000     0.21475000000000
C1     C      0.25858000000000     0.53007000000000     0.71475000000000
C1     C      0.74142000000000     0.03007000000000     0.78525000000000
H2     H      0.87240000000000     0.31014000000000     0.08132000000000
H2     H      0.12760000000000     0.81014000000000     0.41868000000000
H2     H      0.12760000000000     0.68986000000000     0.91868000000000
H2     H      0.87240000000000     0.18986000000000     0.58132000000000
O3     O      0.07220000000000     0.45683000000000     0.23967000000000
O3     O      0.92780000000000     0.95683000000000     0.26033000000000
O3     O      0.92780000000000     0.54317000000000     0.76033000000000
O3     O      0.07220000000000     0.04317000000000     0.73967000000000
C4     C      0.90765000000000     0.40497000000000     0.19216000000000
C4     C      0.09235000000000     0.90497000000000     0.30784000000000
C4     C      0.09235000000000     0.59503000000000     0.80784000000000
C4     C      0.90765000000000     0.09503000000000     0.69216000000000
H5     H      0.77376000000000     0.56484000000000     0.39645000000000
H5     H      0.22624000000000     0.06484000000000     0.10355000000000
H5     H      0.22624000000000     0.43516000000000     0.60355000000000
H5     H      0.77376000000000     0.93516000000000     0.89645000000000
C6     C      0.56148000000000     0.40758000000000     0.22651000000000
C6     C      0.43852000000000     0.90758000000000     0.27349000000000
C6     C      0.43852000000000     0.59242000000000     0.77349000000000
C6     C      0.56148000000000     0.09242000000000     0.72651000000000
H7     H      0.44531000000000     0.45139000000000     0.28962000000000
H7     H      0.55469000000000     0.95139000000000     0.21038000000000
H7     H      0.55469000000000     0.54861000000000     0.71038000000000
H7     H      0.44531000000000     0.04861000000000     0.78962000000000
H8     H      0.53150000000000     0.31259000000000     0.11507000000000
H8     H      0.46850000000000     0.81259000000000     0.38493000000000
H8     H      0.46850000000000     0.68741000000000     0.88493000000000
H8     H      0.53150000000000     0.18741000000000     0.61507000000000
