data_default
_cell_volume           311.796015
_symmetry_space_group_name_H-M 'P 1'
_symmetry_Int_Tables_number 1
loop_
_symmetry_equiv_pos_site_id
_symmetry_equiv_pos_as_xyz
1 x,y,z
_cell_length_a        24.6142000000
_cell_length_b         8.8837200000
_cell_length_c         7.1123000000
_cell_angle_alpha       156.2890
_cell_angle_beta       150.0950
_cell_angle_gamma        37.4698
_cell_formula_units_Z 1
loop_
_atom_site_label
_atom_site_type_symbol
_atom_site_fract_x
_atom_site_fract_y
_atom_site_fract_z
C1     C      0.05559000000000     0.12873000000000     0.07181000000000
C1     C      0.94441000000000     0.87127000000000     0.92819000000000
H1     H      0.97008000000000     0.20874000000000     0.90233000000000
H1     H      0.02992000000000     0.79126000000000     0.09767000000000
H2     H      0.08465000000000     0.99742000000000     0.13751000000000
H2     H      0.91535000000000     0.00258000000000     0.86249000000000
C2     C      0.12217000000000     0.18876000000000     0.19256000000000
C2     C      0.87783000000000     0.81124000000000     0.80744000000000
H3     H      0.09246000000000     0.32107000000000     0.12658000000000
H3     H      0.90754000000000     0.67893000000000     0.87342000000000
C3     C      0.23928000000000     0.08712000000000     0.42587000000000
C3     C      0.76072000000000     0.91288000000000     0.57413000000000
H4     H      0.28664000000000     0.15033000000000     0.51599000000000
H4     H      0.71336000000000     0.84967000000000     0.48401000000000
O1     O      0.28483000000000     0.93894000000000     0.52587000000000
O1     O      0.71517000000000     0.06106000000000     0.47413000000000
C1     C      0.44441000000000     0.62876000000000     0.23829000000000
C1     C      0.55559000000000     0.37124000000000     0.76171000000000
H1     H      0.52993000000000     0.70878000000000     0.58193000000000
H1     H      0.47007000000000     0.29122000000000     0.41807000000000
H2     H      0.41536000000000     0.49745000000000     0.12967000000000
H2     H      0.58464000000000     0.50255000000000     0.87033000000000
C2     C      0.37784000000000     0.68878000000000     0.95959000000000
C2     C      0.62216000000000     0.31122000000000     0.04041000000000
H3     H      0.40754000000000     0.82108000000000     0.07184000000000
H3     H      0.59246000000000     0.17892000000000     0.92816000000000
C3     C      0.26072000000000     0.58712000000000     0.49020000000000
C3     C      0.73928000000000     0.41288000000000     0.50980000000000
H4     H      0.21337000000000     0.65032000000000     0.29615000000000
H4     H      0.78663000000000     0.34968000000000     0.70385000000000
O1     O      0.21517000000000     0.43894000000000     0.31687000000000
O1     O      0.78483000000000     0.56106000000000     0.68313000000000
