data_default
_cell_volume           347.474139
_symmetry_space_group_name_H-M 'P 1'
_symmetry_Int_Tables_number 1
loop_
_symmetry_equiv_pos_site_id
_symmetry_equiv_pos_as_xyz
1 x,y,z
_cell_length_a         8.3015000000
_cell_length_b         7.0501000000
_cell_length_c         7.2076000000
_cell_angle_alpha        90.0000
_cell_angle_beta       124.5410
_cell_angle_gamma        90.0000
_cell_formula_units_Z 1
loop_
_atom_site_label
_atom_site_type_symbol
_atom_site_fract_x
_atom_site_fract_y
_atom_site_fract_z
C1     C      0.03468440000000     0.06712900000000     0.00214000000000
C1     C      0.53468440000000     0.56712900000000     0.00214000000000
C1     C      0.03468440000000     0.93287100000000     0.50214000000000
C1     C      0.53468440000000     0.43287100000000     0.50214000000000
C2     C      0.96138120000000     0.23182900000000     0.01625000000000
C2     C      0.46138120000000     0.73182900000000     0.01625000000000
C2     C      0.96138120000000     0.76817100000000     0.51625000000000
C2     C      0.46138120000000     0.26817100000000     0.51625000000000
C3     C      0.03154400000000     0.41336500000000     0.98628500000000
C3     C      0.53154400000000     0.91336500000000     0.98628500000000
C3     C      0.03154400000000     0.58663500000000     0.48628500000000
C3     C      0.53154400000000     0.08663500000000     0.48628500000000
O1     O      0.97121230000000     0.56900000000000     0.99687700000000
O1     O      0.47121230000000     0.06900000000000     0.99687700000000
O1     O      0.97121230000000     0.43100000000000     0.49687700000000
O1     O      0.47121230000000     0.93100000000000     0.49687700000000
H1     H      0.14649600000000     0.06506580000000     0.96877500000000
H1     H      0.64649600000000     0.56506580000000     0.96877500000000
H1     H      0.14649600000000     0.93493420000000     0.46877500000000
H1     H      0.64649600000000     0.43493420000000     0.46877500000000
H2     H      0.98623190000000     0.93173170000000     0.02336000000000
H2     H      0.48623190000000     0.43173170000000     0.02336000000000
H2     H      0.98623190000000     0.06826830000000     0.52336000000000
H2     H      0.48623190000000     0.56826830000000     0.52336000000000
H3     H      0.84961900000000     0.23818900000000     0.04937000000000
H3     H      0.34961900000000     0.73818900000000     0.04937000000000
H3     H      0.84961900000000     0.76181100000000     0.54937000000000
H3     H      0.34961900000000     0.26181100000000     0.54937000000000
H4     H      0.14563300000000     0.40043900000000     0.95263200000000
H4     H      0.64563300000000     0.90043900000000     0.95263200000000
H4     H      0.14563300000000     0.59956100000000     0.45263200000000
H4     H      0.64563300000000     0.09956100000000     0.45263200000000
