data_default
_cell_volume           336.213562
_symmetry_space_group_name_H-M 'P 1'
_symmetry_Int_Tables_number 1
loop_
_symmetry_equiv_pos_site_id
_symmetry_equiv_pos_as_xyz
1 x,y,z
_cell_length_a         7.0059000000
_cell_length_b         7.0611000000
_cell_length_c         6.7964000000
_cell_angle_alpha        90.0000
_cell_angle_beta        90.0000
_cell_angle_gamma        90.0000
_cell_formula_units_Z 1
loop_
_atom_site_label
_atom_site_type_symbol
_atom_site_fract_x
_atom_site_fract_y
_atom_site_fract_z
H1     H      0.04465000000000     0.94835000000000     0.08132000000000
H1     H      0.95535000000000     0.05165000000000     0.58132000000000
H1     H      0.45535000000000     0.94835000000000     0.58132000000000
H1     H      0.54465000000000     0.05165000000000     0.08132000000000
C2     C      0.09346000000000     0.08486000000000     0.13241000000000
C2     C      0.90654000000000     0.91514000000000     0.63241000000000
C2     C      0.40654000000000     0.08486000000000     0.63241000000000
C2     C      0.59346000000000     0.91514000000000     0.13241000000000
C3     C      0.02553000000000     0.24772000000000     0.05888000000000
C3     C      0.97447000000000     0.75228000000000     0.55888000000000
C3     C      0.47447000000000     0.24772000000000     0.55888000000000
C3     C      0.52553000000000     0.75228000000000     0.05888000000000
H4     H      0.20096000000000     0.08547000000000     0.24691000000000
H4     H      0.79904000000000     0.91453000000000     0.74691000000000
H4     H      0.29904000000000     0.08547000000000     0.74691000000000
H4     H      0.70096000000000     0.91453000000000     0.24691000000000
H5     H      0.91824000000000     0.25148000000000     0.94439000000000
H5     H      0.08176000000000     0.74852000000000     0.44439000000000
H5     H      0.58176000000000     0.25148000000000     0.44439000000000
H5     H      0.41824000000000     0.74852000000000     0.94439000000000
C6     C      0.09582000000000     0.43085000000000     0.13280000000000
C6     C      0.90418000000000     0.56915000000000     0.63280000000000
C6     C      0.40418000000000     0.43085000000000     0.63280000000000
C6     C      0.59582000000000     0.56915000000000     0.13280000000000
O7     O      0.04023000000000     0.58493000000000     0.07239000000000
O7     O      0.95977000000000     0.41507000000000     0.57239000000000
O7     O      0.45977000000000     0.58493000000000     0.57239000000000
O7     O      0.54023000000000     0.41507000000000     0.07239000000000
H8     H      0.20519000000000     0.42067000000000     0.24982000000000
H8     H      0.79481000000000     0.57933000000000     0.74982000000000
H8     H      0.29481000000000     0.42067000000000     0.74982000000000
H8     H      0.70519000000000     0.57933000000000     0.24982000000000
