data_default
_cell_volume           164.634768
_symmetry_space_group_name_H-M 'P 1'
_symmetry_Int_Tables_number 1
loop_
_symmetry_equiv_pos_site_id
_symmetry_equiv_pos_as_xyz
1 x,y,z
_cell_length_a         4.9261000000
_cell_length_b         5.5929000000
_cell_length_c         6.7144000000
_cell_angle_alpha       101.9820
_cell_angle_beta       111.3270
_cell_angle_gamma        96.9020
_cell_formula_units_Z 1
loop_
_atom_site_label
_atom_site_type_symbol
_atom_site_fract_x
_atom_site_fract_y
_atom_site_fract_z
O1     O      0.45082000000000     0.68113000000000     0.74797000000000
O1     O      0.54918000000000     0.31887000000000     0.25203000000000
C1     C      0.95044000000000     0.20356000000000     0.75431000000000
C1     C      0.04956000000000     0.79644000000000     0.24569000000000
C2     C      0.72911000000000     0.07996000000000     0.78874000000000
C2     C      0.27089000000000     0.92004000000000     0.21126000000000
C3     C      0.64921000000000     0.80405000000000     0.72125000000000
C3     C      0.35079000000000     0.19595000000000     0.27875000000000
H1     H      0.61115000000000     0.16672000000000     0.85988000000000
H1     H      0.38885000000000     0.83328000000000     0.14012000000000
H2     H      0.00731000000000     0.38771000000000     0.79815000000000
H2     H      0.99269000000000     0.61229000000000     0.20185000000000
H3     H      0.06556000000000     0.11273000000000     0.68279000000000
H3     H      0.93444000000000     0.88727000000000     0.31721000000000
H4     H      0.77434000000000     0.72078000000000     0.64867000000000
H4     H      0.22566000000000     0.27922000000000     0.35133000000000
