data_default
_cell_volume           161.173951
_symmetry_space_group_name_H-M 'P 1'
_symmetry_Int_Tables_number 1
loop_
_symmetry_equiv_pos_site_id
_symmetry_equiv_pos_as_xyz
1 x,y,z
_cell_length_a         3.9465000000
_cell_length_b         6.8287000000
_cell_length_c         5.9886000000
_cell_angle_alpha        90.0000
_cell_angle_beta        92.9620
_cell_angle_gamma        90.0000
_cell_formula_units_Z 1
loop_
_atom_site_label
_atom_site_type_symbol
_atom_site_fract_x
_atom_site_fract_y
_atom_site_fract_z
O7     O      0.97654000000000     0.54402000000000     0.12376000000000
O7     O      0.02346000000000     0.04402000000000     0.87624000000000
C1     C      0.73401000000000     0.53602000000000     0.75137000000000
C1     C      0.26599000000000     0.03602000000000     0.24863000000000
C2     C      0.50999000000000     0.44889000000000     0.60842000000000
C2     C      0.49001000000000     0.94889000000000     0.39158000000000
C6     C      0.77779000000000     0.47106000000000     0.98600000000000
C6     C      0.22221000000000     0.97106000000000     0.01400000000000
H3     H      0.89251000000000     0.65729000000000     0.70219000000000
H3     H      0.10749000000000     0.15729000000000     0.29781000000000
H4     H      0.35402000000000     0.32769000000000     0.66151000000000
H4     H      0.64598000000000     0.82769000000000     0.33849000000000
H5     H      0.47351000000000     0.49424000000000     0.43504000000000
H5     H      0.52649000000000     0.99424000000000     0.56496000000000
H8     H      0.61161000000000     0.34670000000000     0.03053000000000
H8     H      0.38839000000000     0.84670000000000     0.96947000000000
