data_default
_cell_volume           360.509123
_symmetry_space_group_name_H-M 'P 1'
_symmetry_Int_Tables_number 1
loop_
_symmetry_equiv_pos_site_id
_symmetry_equiv_pos_as_xyz
1 x,y,z
_cell_length_a         9.4040000000
_cell_length_b         3.7790000000
_cell_length_c        10.2220000000
_cell_angle_alpha        90.0000
_cell_angle_beta        82.9360
_cell_angle_gamma        90.0000
_cell_formula_units_Z 1
loop_
_atom_site_label
_atom_site_type_symbol
_atom_site_fract_x
_atom_site_fract_y
_atom_site_fract_z
C1     C      0.14317000000000     0.57656000000000     0.66020000000000
C1     C      0.64317000000000     0.07656000000000     0.66020000000000
C1     C      0.85683000000000     0.57656000000000     0.33980000000000
C1     C      0.35683000000000     0.07656000000000     0.33980000000000
C2     C      0.27130000000000     0.57810000000000     0.70310000000000
C2     C      0.77130000000000     0.07810000000000     0.70310000000000
C2     C      0.72870000000000     0.57810000000000     0.29690000000000
C2     C      0.22870000000000     0.07810000000000     0.29690000000000
C3     C      0.28181000000000     0.59455000000000     0.84352000000000
C3     C      0.78181000000000     0.09455000000000     0.84352000000000
C3     C      0.71819000000000     0.59455000000000     0.15648000000000
C3     C      0.21819000000000     0.09455000000000     0.15648000000000
O4     O      0.39352000000000     0.59720000000000     0.89163000000000
O4     O      0.89352000000000     0.09720000000000     0.89163000000000
O4     O      0.60648000000000     0.59720000000000     0.10837000000000
O4     O      0.10648000000000     0.09720000000000     0.10837000000000
H5     H      0.12969000000000     0.56458000000000     0.55659000000000
H5     H      0.62969000000000     0.06458000000000     0.55659000000000
H5     H      0.87031000000000     0.56458000000000     0.44341000000000
H5     H      0.37031000000000     0.06458000000000     0.44341000000000
H6     H      0.04705000000000     0.58759000000000     0.73030000000000
H6     H      0.54705000000000     0.08759000000000     0.73030000000000
H6     H      0.95295000000000     0.58759000000000     0.26970000000000
H6     H      0.45295000000000     0.08759000000000     0.26970000000000
H7     H      0.37104000000000     0.56755000000000     0.63781000000000
H7     H      0.87104000000000     0.06755000000000     0.63781000000000
H7     H      0.62896000000000     0.56755000000000     0.36219000000000
H7     H      0.12896000000000     0.06755000000000     0.36219000000000
H8     H      0.17932000000000     0.60470000000000     0.90467000000000
H8     H      0.67932000000000     0.10470000000000     0.90467000000000
H8     H      0.82068000000000     0.60470000000000     0.09533000000000
H8     H      0.32068000000000     0.10470000000000     0.09533000000000
