data_default
_cell_volume          1886.386393
_symmetry_space_group_name_H-M 'P 1'
_symmetry_Int_Tables_number 1
loop_
_symmetry_equiv_pos_site_id
_symmetry_equiv_pos_as_xyz
1 x,y,z
_cell_length_a        10.4172000000
_cell_length_b        12.8978000000
_cell_length_c        14.0399000000
_cell_angle_alpha        90.0000
_cell_angle_beta        90.0000
_cell_angle_gamma        90.0000
_cell_formula_units_Z 1
loop_
_atom_site_label
_atom_site_type_symbol
_atom_site_fract_x
_atom_site_fract_y
_atom_site_fract_z
H1     H      0.23469000000000     0.31694000000000     0.28730000000000
H1     H      0.73469000000000     0.18306000000000     0.71270000000000
H1     H      0.76531000000000     0.31694000000000     0.21270000000000
H1     H      0.26531000000000     0.18306000000000     0.78730000000000
H1     H      0.76531000000000     0.68306000000000     0.71270000000000
H1     H      0.26531000000000     0.81694000000000     0.28730000000000
H1     H      0.23469000000000     0.68306000000000     0.78730000000000
H1     H      0.73469000000000     0.81694000000000     0.21270000000000
O1     O      0.18991000000000     0.16391000000000     0.28934000000000
O1     O      0.68991000000000     0.33609000000000     0.71066000000000
O1     O      0.81009000000000     0.16391000000000     0.21066000000000
O1     O      0.31009000000000     0.33609000000000     0.78934000000000
O1     O      0.81009000000000     0.83609000000000     0.71066000000000
O1     O      0.31009000000000     0.66391000000000     0.28934000000000
O1     O      0.18991000000000     0.83609000000000     0.78934000000000
O1     O      0.68991000000000     0.66391000000000     0.21066000000000
H2     H      0.31692000000000     0.16330000000000     0.12440000000000
H2     H      0.81692000000000     0.33670000000000     0.87560000000000
H2     H      0.68308000000000     0.16330000000000     0.37560000000000
H2     H      0.18308000000000     0.33670000000000     0.62440000000000
H2     H      0.68308000000000     0.83670000000000     0.87560000000000
H2     H      0.18308000000000     0.66330000000000     0.12440000000000
H2     H      0.31692000000000     0.83670000000000     0.62440000000000
H2     H      0.81692000000000     0.66330000000000     0.37560000000000
H3     H      0.36186000000000     0.39475000000000     0.15967000000000
H3     H      0.86186000000000     0.10525000000000     0.84033000000000
H3     H      0.63814000000000     0.39475000000000     0.34033000000000
H3     H      0.13814000000000     0.10525000000000     0.65967000000000
H3     H      0.63814000000000     0.60525000000000     0.84033000000000
H3     H      0.13814000000000     0.89475000000000     0.15967000000000
H3     H      0.36186000000000     0.60525000000000     0.65967000000000
H3     H      0.86186000000000     0.89475000000000     0.34033000000000
H4     H      0.41882000000000     0.31899000000000     0.05694000000000
H4     H      0.91882000000000     0.18101000000000     0.94306000000000
H4     H      0.58118000000000     0.31899000000000     0.44306000000000
H4     H      0.08118000000000     0.18101000000000     0.55694000000000
H4     H      0.58118000000000     0.68101000000000     0.94306000000000
H4     H      0.08118000000000     0.81899000000000     0.05694000000000
H4     H      0.41882000000000     0.68101000000000     0.55694000000000
H4     H      0.91882000000000     0.81899000000000     0.44306000000000
C1     C      0.23977000000000     0.24001000000000     0.25317000000000
C1     C      0.73977000000000     0.25999000000000     0.74683000000000
C1     C      0.76023000000000     0.24001000000000     0.24683000000000
C1     C      0.26023000000000     0.25999000000000     0.75317000000000
C1     C      0.76023000000000     0.75999000000000     0.74683000000000
C1     C      0.26023000000000     0.74001000000000     0.25317000000000
C1     C      0.23977000000000     0.75999000000000     0.75317000000000
C1     C      0.73977000000000     0.74001000000000     0.24683000000000
C2     C      0.31235000000000     0.23772000000000     0.15994000000000
C2     C      0.81235000000000     0.26228000000000     0.84006000000000
C2     C      0.68765000000000     0.23772000000000     0.34006000000000
C2     C      0.18765000000000     0.26228000000000     0.65994000000000
C2     C      0.68765000000000     0.76228000000000     0.84006000000000
C2     C      0.18765000000000     0.73772000000000     0.15994000000000
C2     C      0.31235000000000     0.76228000000000     0.65994000000000
C2     C      0.81235000000000     0.73772000000000     0.34006000000000
C3     C      0.36685000000000     0.32055000000000     0.12369000000000
C3     C      0.86685000000000     0.17945000000000     0.87631000000000
C3     C      0.63315000000000     0.32055000000000     0.37631000000000
C3     C      0.13315000000000     0.17945000000000     0.62369000000000
C3     C      0.63315000000000     0.67945000000000     0.87631000000000
C3     C      0.13315000000000     0.82055000000000     0.12369000000000
C3     C      0.36685000000000     0.67945000000000     0.62369000000000
C3     C      0.86685000000000     0.82055000000000     0.37631000000000
