data_default
_cell_volume           315.052721
_symmetry_space_group_name_H-M 'P 1'
_symmetry_Int_Tables_number 1
loop_
_symmetry_equiv_pos_site_id
_symmetry_equiv_pos_as_xyz
1 x,y,z
_cell_length_a         6.3550000000
_cell_length_b         7.3480000000
_cell_length_c         7.0600000000
_cell_angle_alpha        90.0000
_cell_angle_beta        72.8700
_cell_angle_gamma        90.0000
_cell_formula_units_Z 1
loop_
_atom_site_label
_atom_site_type_symbol
_atom_site_fract_x
_atom_site_fract_y
_atom_site_fract_z
C1     C      0.38100000000000     0.61760000000000     0.82570000000000
C1     C      0.61900000000000     0.38240000000000     0.17430000000000
C1     C      0.61900000000000     0.11760000000000     0.67430000000000
C1     C      0.38100000000000     0.88240000000000     0.32570000000000
C2     C      0.22270000000000     0.74440000000000     0.88600000000000
C2     C      0.77730000000000     0.25560000000000     0.11400000000000
C2     C      0.77730000000000     0.24440000000000     0.61400000000000
C2     C      0.22270000000000     0.75560000000000     0.38600000000000
C3     C      0.99660000000000     0.70730000000000     0.87920000000000
C3     C      0.00340000000000     0.29270000000000     0.12080000000000
C3     C      0.00340000000000     0.20730000000000     0.62080000000000
C3     C      0.99660000000000     0.79270000000000     0.37920000000000
O4     O      0.84510000000000     0.81550000000000     0.93130000000000
O4     O      0.15490000000000     0.18450000000000     0.06870000000000
O4     O      0.15490000000000     0.31550000000000     0.56870000000000
O4     O      0.84510000000000     0.68450000000000     0.43130000000000
H5     H      0.54840000000000     0.64100000000000     0.82880000000000
H5     H      0.45160000000000     0.35900000000000     0.17120000000000
H5     H      0.45160000000000     0.14100000000000     0.67120000000000
H5     H      0.54840000000000     0.85900000000000     0.32880000000000
H6     H      0.34460000000000     0.48630000000000     0.77120000000000
H6     H      0.65540000000000     0.51370000000000     0.22880000000000
H6     H      0.65540000000000     0.98630000000000     0.72880000000000
H6     H      0.34460000000000     0.01370000000000     0.27120000000000
H7     H      0.25350000000000     0.87670000000000     0.94110000000000
H7     H      0.74650000000000     0.12330000000000     0.05890000000000
H7     H      0.74650000000000     0.37670000000000     0.55890000000000
H7     H      0.25350000000000     0.62330000000000     0.44110000000000
H8     H      0.97200000000000     0.57060000000000     0.82200000000000
H8     H      0.02800000000000     0.42940000000000     0.17800000000000
H8     H      0.02800000000000     0.07060000000000     0.67800000000000
H8     H      0.97200000000000     0.92940000000000     0.32200000000000
