data_default
_cell_volume           334.606280
_symmetry_space_group_name_H-M 'P 1'
_symmetry_Int_Tables_number 1
loop_
_symmetry_equiv_pos_site_id
_symmetry_equiv_pos_as_xyz
1 x,y,z
_cell_length_a         7.1542100000
_cell_length_b         6.9674100000
_cell_length_c         7.2109200000
_cell_angle_alpha        90.0000
_cell_angle_beta        68.5780
_cell_angle_gamma        90.0000
_cell_formula_units_Z 1
loop_
_atom_site_label
_atom_site_type_symbol
_atom_site_fract_x
_atom_site_fract_y
_atom_site_fract_z
C1     C      0.02952000000000     0.16485000000000     0.95681000000000
C1     C      0.52952000000000     0.66485000000000     0.45681000000000
C1     C      0.52952000000000     0.83515000000000     0.95681000000000
C1     C      0.02952000000000     0.33515000000000     0.45681000000000
H2     H      0.13806000000000     0.15343000000000     0.80368000000000
H2     H      0.63806000000000     0.65343000000000     0.30368000000000
H2     H      0.63806000000000     0.84657000000000     0.80368000000000
H2     H      0.13806000000000     0.34657000000000     0.30368000000000
O3     O      0.97505000000000     0.31725000000000     0.03137000000000
O3     O      0.47505000000000     0.81725000000000     0.53137000000000
O3     O      0.47505000000000     0.68275000000000     0.03137000000000
O3     O      0.97505000000000     0.18275000000000     0.53137000000000
C4     C      0.95909000000000     0.98002000000000     0.05915000000000
C4     C      0.45909000000000     0.48002000000000     0.55915000000000
C4     C      0.45909000000000     0.01998000000000     0.05915000000000
C4     C      0.95909000000000     0.51998000000000     0.55915000000000
H5     H      0.85247000000000     0.98810000000000     0.20963000000000
H5     H      0.35247000000000     0.48810000000000     0.70963000000000
H5     H      0.35247000000000     0.01190000000000     0.20963000000000
H5     H      0.85247000000000     0.51190000000000     0.70963000000000
C6     C      0.02469000000000     0.81483000000000     0.96907000000000
C6     C      0.52469000000000     0.31483000000000     0.46907000000000
C6     C      0.52469000000000     0.18517000000000     0.96907000000000
C6     C      0.02469000000000     0.68517000000000     0.46907000000000
H7     H      0.97473000000000     0.67944000000000     0.04174000000000
H7     H      0.47473000000000     0.17944000000000     0.54174000000000
H7     H      0.47473000000000     0.32056000000000     0.04174000000000
H7     H      0.97473000000000     0.82056000000000     0.54174000000000
H8     H      0.13150000000000     0.80925000000000     0.81829000000000
H8     H      0.63150000000000     0.30925000000000     0.31829000000000
H8     H      0.63150000000000     0.19075000000000     0.81829000000000
H8     H      0.13150000000000     0.69075000000000     0.31829000000000
