data_default
_cell_volume           156.491907
_symmetry_space_group_name_H-M 'P 1'
_symmetry_Int_Tables_number 1
loop_
_symmetry_equiv_pos_site_id
_symmetry_equiv_pos_as_xyz
1 x,y,z
_cell_length_a         6.6000000000
_cell_length_b         8.1999000000
_cell_length_c         4.6657000000
_cell_angle_alpha       137.6600
_cell_angle_beta       105.2900
_cell_angle_gamma        90.0000
_cell_formula_units_Z 1
loop_
_atom_site_label
_atom_site_type_symbol
_atom_site_fract_x
_atom_site_fract_y
_atom_site_fract_z
H1     H      0.71348000000000     0.59825000000000     0.24266000000000
O2     O      0.50314000000000     0.34302000000000     0.57306000000000
H3     H      0.51771000000000     0.75652000000000     0.81139000000000
H4     H      0.83654000000000     0.05258000000000     0.77332000000000
H5     H      0.74155000000000     0.18612000000000     0.59271000000000
C6     C      0.61134000000000     0.55878000000000     0.95782000000000
C7     C      0.61774000000000     0.79056000000000     0.08505000000000
C8     C      0.73686000000000     0.02002000000000     0.50126000000000
