data_default
_cell_volume           341.918106
_symmetry_space_group_name_H-M 'P 1'
_symmetry_Int_Tables_number 1
loop_
_symmetry_equiv_pos_site_id
_symmetry_equiv_pos_as_xyz
1 x,y,z
_cell_length_a         7.9625000000
_cell_length_b         6.5986000000
_cell_length_c         6.5076000000
_cell_angle_alpha        90.0000
_cell_angle_beta        90.0000
_cell_angle_gamma        90.0000
_cell_formula_units_Z 1
loop_
_atom_site_label
_atom_site_type_symbol
_atom_site_fract_x
_atom_site_fract_y
_atom_site_fract_z
O1     O      0.89881000000000     0.63336000000000     0.60945000000000
O1     O      0.60119000000000     0.36664000000000     0.10945000000000
O1     O      0.39881000000000     0.86664000000000     0.39055000000000
O1     O      0.10119000000000     0.13336000000000     0.89055000000000
C1     C      0.07260000000000     0.63782000000000     0.10388000000000
C1     C      0.42740000000000     0.36218000000000     0.60388000000000
C1     C      0.57260000000000     0.86218000000000     0.89612000000000
C1     C      0.92740000000000     0.13782000000000     0.39612000000000
C2     C      0.95466000000000     0.63100000000000     0.25005000000000
C2     C      0.54534000000000     0.36900000000000     0.75005000000000
C2     C      0.45466000000000     0.86900000000000     0.74995000000000
C2     C      0.04534000000000     0.13100000000000     0.24995000000000
C3     C      0.99993000000000     0.63890000000000     0.46968000000000
C3     C      0.50007000000000     0.36110000000000     0.96968000000000
C3     C      0.49993000000000     0.86110000000000     0.53032000000000
C3     C      0.00007000000000     0.13890000000000     0.03032000000000
H1     H      0.83382000000000     0.62055000000000     0.21784000000000
H1     H      0.66618000000000     0.37945000000000     0.71784000000000
H1     H      0.33382000000000     0.87945000000000     0.78216000000000
H1     H      0.16618000000000     0.12055000000000     0.28216000000000
H2     H      0.04500000000000     0.63277000000000     0.95639000000000
H2     H      0.45500000000000     0.36723000000000     0.45639000000000
H2     H      0.54500000000000     0.86723000000000     0.04361000000000
H2     H      0.95500000000000     0.13277000000000     0.54361000000000
H3     H      0.19286000000000     0.64832000000000     0.13976000000000
H3     H      0.30714000000000     0.35168000000000     0.63976000000000
H3     H      0.69286000000000     0.85168000000000     0.86024000000000
H3     H      0.80714000000000     0.14832000000000     0.36024000000000
H4     H      0.12489000000000     0.64948000000000     0.49749000000000
H4     H      0.37511000000000     0.35052000000000     0.99749000000000
H4     H      0.62489000000000     0.85052000000000     0.50251000000000
H4     H      0.87511000000000     0.14948000000000     0.00251000000000
