data_default
_cell_volume           341.427776
_symmetry_space_group_name_H-M 'P 1'
_symmetry_Int_Tables_number 1
loop_
_symmetry_equiv_pos_site_id
_symmetry_equiv_pos_as_xyz
1 x,y,z
_cell_length_a         6.4076388851
_cell_length_b         7.5580838489
_cell_length_c         7.7258356276
_cell_angle_alpha        90.0000
_cell_angle_beta       114.1437
_cell_angle_gamma        90.0000
_cell_formula_units_Z 1
loop_
_atom_site_label
_atom_site_type_symbol
_atom_site_fract_x
_atom_site_fract_y
_atom_site_fract_z
C0_0   C      0.86463486895674     0.65223850642662     0.66648917719344
C0_0   C      0.13536513104326     0.15223850642662     0.83351082280656
C0_0   C      0.13536513104326     0.34776149357338     0.33351082280656
C0_0   C      0.86463486895674     0.84776149357338     0.16648917719344
C1_0   C      0.69064116694715     0.76822657364933     0.61445075382853
C1_0   C      0.30935883305285     0.26822657364933     0.88554924617147
C1_0   C      0.30935883305285     0.23177342635067     0.38554924617147
C1_0   C      0.69064116694715     0.73177342635067     0.11445075382853
H4_0   H      0.02295238140896     0.68325631191684     0.65204468641690
H4_0   H      0.97704761859104     0.18325631191684     0.84795531358310
H4_0   H      0.97704761859104     0.31674368808316     0.34795531358310
H4_0   H      0.02295238140896     0.81674368808316     0.15204468641690
H5_0   H      0.85115068263093     0.52407583409896     0.72619876932521
H5_0   H      0.14884931736907     0.02407583409896     0.77380123067479
H5_0   H      0.14884931736907     0.47592416590104     0.27380123067479
H5_0   H      0.85115068263093     0.97592416590104     0.22619876932521
C2_0   C      0.48145682715927     0.72202572073425     0.63551490534035
C2_0   C      0.51854317284073     0.22202572073425     0.86448509465965
C2_0   C      0.51854317284073     0.27797427926575     0.36448509465965
C2_0   C      0.48145682715927     0.77797427926575     0.13551490534035
H6_0   H      0.69918462200166     0.89846422829115     0.55620407079547
H6_0   H      0.30081537799834     0.39846422829115     0.94379592920453
H6_0   H      0.30081537799834     0.10153577170885     0.44379592920453
H6_0   H      0.69918462200166     0.60153577170885     0.05620407079547
O3_0   O      0.31480066136074     0.82126863269134     0.59543955725919
O3_0   O      0.68519933863926     0.32126863269134     0.90456044274081
O3_0   O      0.68519933863926     0.17873136730866     0.40456044274081
O3_0   O      0.31480066136074     0.67873136730866     0.09543955725919
H7_0   H      0.47913812913355     0.58723818530120     0.69249824962409
H7_0   H      0.52086187086645     0.08723818530120     0.80750175037591
H7_0   H      0.52086187086645     0.41276181469880     0.30750175037591
H7_0   H      0.47913812913355     0.91276181469880     0.19249824962409
