data_default
_cell_volume           662.238991
_symmetry_space_group_name_H-M 'P 1'
_symmetry_Int_Tables_number 1
loop_
_symmetry_equiv_pos_site_id
_symmetry_equiv_pos_as_xyz
1 x,y,z
_cell_length_a         7.0242000000
_cell_length_b         6.7734000000
_cell_length_c        13.9191000000
_cell_angle_alpha        90.0000
_cell_angle_beta        90.0000
_cell_angle_gamma        90.0000
_cell_formula_units_Z 1
loop_
_atom_site_label
_atom_site_type_symbol
_atom_site_fract_x
_atom_site_fract_y
_atom_site_fract_z
C1     C      0.47509000000000     0.79126000000000     0.87945000000000
C1     C      0.02491000000000     0.20874000000000     0.37945000000000
C1     C      0.52491000000000     0.29126000000000     0.62055000000000
C1     C      0.97509000000000     0.70874000000000     0.12055000000000
C1     C      0.52491000000000     0.20874000000000     0.12055000000000
C1     C      0.97509000000000     0.79126000000000     0.62055000000000
C1     C      0.47509000000000     0.70874000000000     0.37945000000000
C1     C      0.02491000000000     0.29126000000000     0.87945000000000
H2     H      0.30571000000000     0.60922000000000     0.78908000000000
H2     H      0.19429000000000     0.39078000000000     0.28908000000000
H2     H      0.69429000000000     0.10922000000000     0.71092000000000
H2     H      0.80571000000000     0.89078000000000     0.21092000000000
H2     H      0.69429000000000     0.39078000000000     0.21092000000000
H2     H      0.80571000000000     0.60922000000000     0.71092000000000
H2     H      0.30571000000000     0.89078000000000     0.28908000000000
H2     H      0.19429000000000     0.10922000000000     0.78908000000000
O3     O      0.45798000000000     0.78179000000000     0.71037000000000
O3     O      0.04202000000000     0.21821000000000     0.21037000000000
O3     O      0.54202000000000     0.28179000000000     0.78963000000000
O3     O      0.95798000000000     0.71821000000000     0.28963000000000
O3     O      0.54202000000000     0.21821000000000     0.28963000000000
O3     O      0.95798000000000     0.78179000000000     0.78963000000000
O3     O      0.45798000000000     0.71821000000000     0.21037000000000
O3     O      0.04202000000000     0.28179000000000     0.71037000000000
C4     C      0.40510000000000     0.71918000000000     0.78564000000000
C4     C      0.09490000000000     0.28082000000000     0.28564000000000
C4     C      0.59490000000000     0.21918000000000     0.71436000000000
C4     C      0.90510000000000     0.78082000000000     0.21436000000000
C4     C      0.59490000000000     0.28082000000000     0.21436000000000
C4     C      0.90510000000000     0.71918000000000     0.71436000000000
C4     C      0.40510000000000     0.78082000000000     0.28564000000000
C4     C      0.09490000000000     0.21918000000000     0.78564000000000
H5     H      0.57459000000000     0.90125000000000     0.87749000000000
H5     H      0.92541000000000     0.09875000000000     0.37749000000000
H5     H      0.42541000000000     0.40125000000000     0.62251000000000
H5     H      0.07459000000000     0.59875000000000     0.12251000000000
H5     H      0.42541000000000     0.09875000000000     0.12251000000000
H5     H      0.07459000000000     0.90125000000000     0.62251000000000
H5     H      0.57459000000000     0.59875000000000     0.37749000000000
H5     H      0.92541000000000     0.40125000000000     0.87749000000000
C6     C      0.41132000000000     0.71628000000000     0.96091000000000
C6     C      0.08868000000000     0.28372000000000     0.46091000000000
C6     C      0.58868000000000     0.21628000000000     0.53909000000000
C6     C      0.91132000000000     0.78372000000000     0.03909000000000
C6     C      0.58868000000000     0.28372000000000     0.03909000000000
C6     C      0.91132000000000     0.71628000000000     0.53909000000000
C6     C      0.41132000000000     0.78372000000000     0.46091000000000
C6     C      0.08868000000000     0.21628000000000     0.96091000000000
H7     H      0.45853000000000     0.76481000000000     0.02623000000000
H7     H      0.04147000000000     0.23519000000000     0.52623000000000
H7     H      0.54147000000000     0.26481000000000     0.47377000000000
H7     H      0.95853000000000     0.73519000000000     0.97377000000000
H7     H      0.54147000000000     0.23519000000000     0.97377000000000
H7     H      0.95853000000000     0.76481000000000     0.47377000000000
H7     H      0.45853000000000     0.73519000000000     0.52623000000000
H7     H      0.04147000000000     0.26481000000000     0.02623000000000
H8     H      0.31178000000000     0.60624000000000     0.96167000000000
H8     H      0.18822000000000     0.39376000000000     0.46167000000000
H8     H      0.68822000000000     0.10624000000000     0.53833000000000
H8     H      0.81178000000000     0.89376000000000     0.03833000000000
H8     H      0.68822000000000     0.39376000000000     0.03833000000000
H8     H      0.81178000000000     0.60624000000000     0.53833000000000
H8     H      0.31178000000000     0.89376000000000     0.46167000000000
H8     H      0.18822000000000     0.10624000000000     0.96167000000000
