data_default
_cell_volume           351.900175
_symmetry_space_group_name_H-M 'P 1'
_symmetry_Int_Tables_number 1
loop_
_symmetry_equiv_pos_site_id
_symmetry_equiv_pos_as_xyz
1 x,y,z
_cell_length_a         3.9389000000
_cell_length_b        13.1963000000
_cell_length_c         6.9745000000
_cell_angle_alpha        90.0000
_cell_angle_beta       103.9070
_cell_angle_gamma        90.0000
_cell_formula_units_Z 1
loop_
_atom_site_label
_atom_site_type_symbol
_atom_site_fract_x
_atom_site_fract_y
_atom_site_fract_z
CAR1   Ca     0.78064400000000     0.04856980000000     0.72449900000000
CAR1   Ca     0.71935600000000     0.54856980000000     0.77550100000000
CAR1   Ca     0.21935600000000     0.95143020000000     0.27550100000000
CAR1   Ca     0.28064400000000     0.45143020000000     0.22449900000000
CAR2   Ca     0.64688400000000     0.12055500000000     0.82058700000000
CAR2   Ca     0.85311600000000     0.62055500000000     0.67941300000000
CAR2   Ca     0.35311600000000     0.87944500000000     0.17941300000000
CAR2   Ca     0.14688400000000     0.37944500000000     0.32058700000000
CAR3   Ca     0.60413900000000     0.22497600000000     0.74430800000000
CAR3   Ca     0.89586100000000     0.72497600000000     0.75569200000000
CAR3   Ca     0.39586100000000     0.77502400000000     0.25569200000000
CAR3   Ca     0.10413900000000     0.27502400000000     0.24430800000000
HYD1   H      0.81519300000000     0.97132680000000     0.77674600000000
HYD1   H      0.68480700000000     0.47132680000000     0.72325400000000
HYD1   H      0.18480700000000     0.02867320000000     0.22325400000000
HYD1   H      0.31519300000000     0.52867320000000     0.27674600000000
HYD2   H      0.85910900000000     0.06604270000000     0.58969900000000
HYD2   H      0.64089100000000     0.56604270000000     0.91030100000000
HYD2   H      0.14089100000000     0.93395730000000     0.41030100000000
HYD2   H      0.35910900000000     0.43395730000000     0.08969900000000
HYD3   H      0.56627000000000     0.10529300000000     0.95555800000000
HYD3   H      0.93373000000000     0.60529300000000     0.54444200000000
HYD3   H      0.43373000000000     0.89470700000000     0.04444200000000
HYD3   H      0.06627000000000     0.39470700000000     0.45555800000000
HYD4   H      0.68972000000000     0.23729800000000     0.60612800000000
HYD4   H      0.81028000000000     0.73729800000000     0.89387200000000
HYD4   H      0.31028000000000     0.76270200000000     0.39387200000000
HYD4   H      0.18972000000000     0.26270200000000     0.10612800000000
OXY1   O      0.48394800000000     0.29451800000000     0.82427400000000
OXY1   O      0.01605200000000     0.79451800000000     0.67572600000000
OXY1   O      0.51605200000000     0.70548200000000     0.17572600000000
OXY1   O      0.98394800000000     0.20548200000000     0.32427400000000
