data_default
_cell_volume           322.333758
_symmetry_space_group_name_H-M 'P 1'
_symmetry_Int_Tables_number 1
loop_
_symmetry_equiv_pos_site_id
_symmetry_equiv_pos_as_xyz
1 x,y,z
_cell_length_a        10.4436000000
_cell_length_b         3.9317000000
_cell_length_c         7.8501000000
_cell_angle_alpha        90.0000
_cell_angle_beta        90.0000
_cell_angle_gamma        90.0000
_cell_formula_units_Z 1
loop_
_atom_site_label
_atom_site_type_symbol
_atom_site_fract_x
_atom_site_fract_y
_atom_site_fract_z
O7     O      0.26274000000000     0.57533000000000     0.88757000000000
O7     O      0.73726000000000     0.42467000000000     0.38757000000000
O7     O      0.23726000000000     0.57533000000000     0.38757000000000
O7     O      0.76274000000000     0.42467000000000     0.88757000000000
C1     C      0.43759000000000     0.33727000000000     0.04158000000000
C1     C      0.56241000000000     0.66273000000000     0.54158000000000
C1     C      0.06241000000000     0.33727000000000     0.54158000000000
C1     C      0.93759000000000     0.66273000000000     0.04158000000000
C2     C      0.47325000000000     0.12787000000000     0.16728000000000
C2     C      0.52675000000000     0.87213000000000     0.66728000000000
C2     C      0.02675000000000     0.12787000000000     0.66728000000000
C2     C      0.97325000000000     0.87213000000000     0.16728000000000
C6     C      0.30123000000000     0.38898000000000     0.00000000000000
C6     C      0.69877000000000     0.61102000000000     0.50000000000000
C6     C      0.19877000000000     0.38898000000000     0.50000000000000
C6     C      0.80123000000000     0.61102000000000     0.00000000000000
H3     H      0.50645000000000     0.47758000000000     0.96501000000000
H3     H      0.49355000000000     0.52242000000000     0.46501000000000
H3     H      0.99355000000000     0.47758000000000     0.46501000000000
H3     H      0.00645000000000     0.52242000000000     0.96501000000000
H4     H      0.40254000000000     0.99004000000000     0.24224000000000
H4     H      0.59746000000000     0.00996000000000     0.74224000000000
H4     H      0.09746000000000     0.99004000000000     0.74224000000000
H4     H      0.90254000000000     0.00996000000000     0.24224000000000
H5     H      0.57302000000000     0.08593000000000     0.20011000000000
H5     H      0.42698000000000     0.91407000000000     0.70011000000000
H5     H      0.92698000000000     0.08593000000000     0.70011000000000
H5     H      0.07302000000000     0.91407000000000     0.20011000000000
H8     H      0.23342000000000     0.24150000000000     0.08086000000000
H8     H      0.76658000000000     0.75850000000000     0.58086000000000
H8     H      0.26658000000000     0.24150000000000     0.58086000000000
H8     H      0.73342000000000     0.75850000000000     0.08086000000000
