data_default
_cell_volume           351.579473
_symmetry_space_group_name_H-M 'P 1'
_symmetry_Int_Tables_number 1
loop_
_symmetry_equiv_pos_site_id
_symmetry_equiv_pos_as_xyz
1 x,y,z
_cell_length_a         6.6171000000
_cell_length_b         7.6310000000
_cell_length_c         7.3516000000
_cell_angle_alpha        90.0000
_cell_angle_beta       108.7210
_cell_angle_gamma        90.0000
_cell_formula_units_Z 1
loop_
_atom_site_label
_atom_site_type_symbol
_atom_site_fract_x
_atom_site_fract_y
_atom_site_fract_z
C1     C      0.63308500000000     0.14269500000000     0.82908600000000
C1     C      0.36691500000000     0.64269500000000     0.67091400000000
C1     C      0.36691500000000     0.85730500000000     0.17091400000000
C1     C      0.63308500000000     0.35730500000000     0.32908600000000
C2     C      0.79407100000000     0.25825900000000     0.88377400000000
C2     C      0.20592900000000     0.75825900000000     0.61622600000000
C2     C      0.20592900000000     0.74174100000000     0.11622600000000
C2     C      0.79407100000000     0.24174100000000     0.38377400000000
C3     C      0.00683000000000     0.21171500000000     0.87553700000000
C3     C      0.99317000000000     0.71171500000000     0.62446300000000
C3     C      0.99317000000000     0.78828500000000     0.12446300000000
C3     C      0.00683000000000     0.28828500000000     0.37553700000000
O1     O      0.16105000000000     0.31060400000000     0.92309600000000
O1     O      0.83895000000000     0.81060400000000     0.57690400000000
O1     O      0.83895000000000     0.68939600000000     0.07690400000000
O1     O      0.16105000000000     0.18939600000000     0.42309600000000
H1     H      0.65700700000000     0.01362360000000     0.77831200000000
H1     H      0.34299300000000     0.51362360000000     0.72168800000000
H1     H      0.34299300000000     0.98637640000000     0.22168800000000
H1     H      0.65700700000000     0.48637640000000     0.27831200000000
H2     H      0.47529000000000     0.17296600000000     0.83351900000000
H2     H      0.52471000000000     0.67296600000000     0.66648100000000
H2     H      0.52471000000000     0.82703400000000     0.16648100000000
H2     H      0.47529000000000     0.32703400000000     0.33351900000000
H3     H      0.77481700000000     0.38811200000000     0.93508300000000
H3     H      0.22518300000000     0.88811200000000     0.56491700000000
H3     H      0.22518300000000     0.61188800000000     0.06491700000000
H3     H      0.77481700000000     0.11188800000000     0.43508300000000
H4     H      0.01954000000000     0.07789320000000     0.82219400000000
H4     H      0.98046000000000     0.57789320000000     0.67780600000000
H4     H      0.98046000000000     0.92210680000000     0.17780600000000
H4     H      0.01954000000000     0.42210680000000     0.32219400000000
