data_default
_cell_volume           349.273525
_symmetry_space_group_name_H-M 'P 1'
_symmetry_Int_Tables_number 1
loop_
_symmetry_equiv_pos_site_id
_symmetry_equiv_pos_as_xyz
1 x,y,z
_cell_length_a         7.2453000000
_cell_length_b         6.9858000000
_cell_length_c         6.9007000000
_cell_angle_alpha        90.0000
_cell_angle_beta        90.0000
_cell_angle_gamma        90.0000
_cell_formula_units_Z 1
loop_
_atom_site_label
_atom_site_type_symbol
_atom_site_fract_x
_atom_site_fract_y
_atom_site_fract_z
CAR1   Ca     0.60141800000000     0.41797500000000     0.02597770000000
CAR1   Ca     0.39858200000000     0.58202500000000     0.52597770000000
CAR1   Ca     0.89858200000000     0.41797500000000     0.52597770000000
CAR1   Ca     0.10141800000000     0.58202500000000     0.02597770000000
CAR2   Ca     0.52892100000000     0.25786100000000     0.95040610000000
CAR2   Ca     0.47107900000000     0.74213900000000     0.45040610000000
CAR2   Ca     0.97107900000000     0.25786100000000     0.45040610000000
CAR2   Ca     0.02892100000000     0.74213900000000     0.95040610000000
CAR3   Ca     0.59098900000000     0.06854160000000     0.01770040000000
CAR3   Ca     0.40901100000000     0.93145840000000     0.51770040000000
CAR3   Ca     0.90901100000000     0.06854160000000     0.51770040000000
CAR3   Ca     0.09098900000000     0.93145840000000     0.01770040000000
HYD1   H      0.55873800000000     0.55884200000000     0.97962630000000
HYD1   H      0.44126200000000     0.44115800000000     0.47962630000000
HYD1   H      0.94126200000000     0.55884200000000     0.47962630000000
HYD1   H      0.05873800000000     0.44115800000000     0.97962630000000
HYD2   H      0.70643600000000     0.41057400000000     0.13735300000000
HYD2   H      0.29356400000000     0.58942600000000     0.63735300000000
HYD2   H      0.79356400000000     0.41057400000000     0.63735300000000
HYD2   H      0.20643600000000     0.58942600000000     0.13735300000000
HYD3   H      0.42383000000000     0.26088600000000     0.83900400000000
HYD3   H      0.57617000000000     0.73911400000000     0.33900400000000
HYD3   H      0.07617000000000     0.26088600000000     0.33900400000000
HYD3   H      0.92383000000000     0.73911400000000     0.83900400000000
HYD4   H      0.69849100000000     0.07191160000000     0.13161200000000
HYD4   H      0.30150900000000     0.92808840000000     0.63161200000000
HYD4   H      0.80150900000000     0.07191160000000     0.63161200000000
HYD4   H      0.19849100000000     0.92808840000000     0.13161200000000
OXY1   O      0.53093900000000     0.91642720000000     0.95525320000000
OXY1   O      0.46906100000000     0.08357280000000     0.45525320000000
OXY1   O      0.96906100000000     0.91642720000000     0.45525320000000
OXY1   O      0.03093900000000     0.08357280000000     0.95525320000000
