data_001XXIC\P21-C\-\1
_symmetry_cell_setting           monoclinic
_symmetry_space_group_name_H-M   'P 21/c'
_symmetry_Int_Tables_number      14
loop_
_symmetry_equiv_pos_site_id
_symmetry_equiv_pos_as_xyz
1 x,y,z
2 -x,1/2+y,1/2-z
3 -x,-y,-z
4 x,1/2-y,1/2+z
_cell_length_a                   4.4690
_cell_length_b                   12.2273
_cell_length_c                   17.6469
_cell_angle_alpha                90.0000
_cell_angle_beta                 128.8402
_cell_angle_gamma                90.0000
_cell_volume                     751.087
loop_
_atom_site_label
_atom_site_type_symbol
_atom_site_fract_x
_atom_site_fract_y
_atom_site_fract_z
O1 O 0.36199 0.27845 -0.15050
O2 O 0.08958 0.42806 -0.09347
O3 O 0.21550 0.40787 0.07685
H4 H 0.27512 0.39363 0.13866
O5 O 1.05649 -0.00137 0.11227
H6 H 1.19677 -0.05929 0.15972
O7 O 1.00559 0.05213 0.22551
C8 C 0.71293 0.16212 0.08294
C9 C 0.64198 0.17531 -0.00576
H10 H 0.74750 0.11683 -0.02994
C11 C 0.43212 0.26511 -0.06404
C12 C 0.29404 0.34133 -0.03363
C13 C 0.36638 0.32746 0.05513
C14 C 0.57504 0.23833 0.11374
H15 H 0.63398 0.22623 0.18282
C16 C 0.93478 0.06803 0.14798
H17 H 0.01201 0.47398 -0.06394
H18 H 0.21383 0.34448 -0.18112
O19 O 0.34698 0.11525 0.74483
H20 H 0.19206 0.05650 0.73942
H21 H 0.33612 0.17600 0.77750
