data_dellavalle.XXI.003
# Della Valle's submission for compound XXI, choice 3

# Compound  XXI
# Choice    3
# Energy    -368654.1298 kJ/mol
# Filename  00112/C0011200429/C0011200429.min

_symmetry_cell_setting                  Triclinic
_symmetry_space_group_name_H-M       'P 1'
_symmetry_Int_Tables_number                  1

loop_
_symmetry_equiv_pos_site_id
_symmetry_equiv_pos_as_xyz
   1 x,y,z

_cell_length_a         4.47710
_cell_length_b         5.87510
_cell_length_c         9.43150
_cell_angle_alpha      92.8910
_cell_angle_beta      102.8310
_cell_angle_gamma      98.8880
_cell_volume           238.055

loop_
_atom_site_label
_atom_site_type_symbol
_atom_site_fract_x
_atom_site_fract_y
_atom_site_fract_z
O17  O   1.00000  1.00000  1.00000
O18  O   0.57093  0.77200  0.93271
O19  O   1.08392  0.59961  0.47337
O20  O   0.49282  1.22834  0.45456
O21  O   0.79428  0.93158  0.30657
C4   C   0.79229  0.89142  0.90186
C5   C   0.93943  0.74522  0.68548
C6   C   0.66497  1.06997  0.67295
C7   C   0.80972  0.92201  0.45398
C8   C   0.66365  1.07716  0.52426
C9   C   0.95143  0.75702  0.53805
C10  C   0.80271  0.90428  0.75727
O3   O   0.70472  0.40371  0.14160
H11  H   0.55782  0.76159  1.02417
H12  H   0.98375  0.88389  0.28507
H13  H   0.60414  1.29595  0.38310
H14  H   1.27568  0.57714  0.54248
H15  H   0.55371  1.18337  0.71898
H16  H   1.03308  0.61830  0.74153
H1   H   0.91379  0.36288  0.15376
H2   H   0.57092  0.27258  0.07716


