data_dwmh_21_2
# 17 E -74.74 d     1.56
_symmetry_cell_setting        monoclinic
_symmetry_space_group_name_H-M  'P 21/c'
_symmetry_Int_Tables_number  14
loop_
_symmetry-equiv_pos_site_id
_symmetry_equiv_pos_as_xyz
1 x,y,z
2 -x,1/2+y,1/2-z
3 -x,-y,-z
4 x,1/2-y,1/2+z
_cell_length_a      6.982
_cell_length_b      11.655
_cell_length_c      11.279
_cell_angle_alpha   90.0
_cell_angle_beta    119.542
_cell_angle_gamma   90.0
_cell_volume        798.5079
loop_
_atom_site_label
_atom_site_type_symbol
_atom_site_fract_x
_atom_site_fract_y
_atom_site_fract_z
O1 O  -0.59830 0.28320 -0.17280
O2 O  -0.60400 0.47210 -0.19450
O3 O  -0.16340 0.13490 -0.38120
O4 O  -0.04270 0.31990 -0.47160
O5 O  -0.15180 0.53770 -0.43100
C6 C  -0.39660 0.36130 -0.26920
C7 C  -0.34000 0.25240 -0.29080
C8 C  -0.21710 0.24240 -0.35680
C9 C  -0.15750 0.33750 -0.40260
C10 C  -0.21470 0.44660 -0.37950
C11 C  -0.33110 0.45740 -0.31230
C12 C  -0.54090 0.37930 -0.20880
H13 H  -0.70960 0.29500 -0.14470
H14 H  -0.38400 0.17310 -0.26020
H15 H  -0.03440 0.13650 -0.39440
H16 H  -0.01010 0.39320 -0.50090
H17 H  -0.21910 0.60810 -0.42000
H18 H  -0.37390 0.54310 -0.29610
O19 O  -0.16970 -0.14490 -0.45630
H20 H  -0.09860 -0.07570 -0.46650
H21 H  -0.10980 -0.21270 -0.47870
