data_vaneijck.001  
# Generated as p21c-45280
# Energy -2623.371 kJ/mole
_cell_length_a  43.34500
_cell_length_b   3.47300
_cell_length_c  20.96900
_cell_angle_alpha    90.000
_cell_angle_beta    12.332
_cell_angle_gamma    90.000
_cell_formula_units_Z   4
loop_
_symmetry_equiv_pos_as_xyz
x,y,z
    -x,y+1/2,-z+1/2                                   
    -x,-y,-z                                          
    x,-y+1/2,z+1/2                                    
_symmetry_space_group_name_H-M 'P 21/c   '
loop_
_atom_site_label
_atom_site_fract_x
_atom_site_fract_y
_atom_site_fract_z
C1    0.587050  0.353560  0.190880
C2    0.428360  0.294830  0.514080
O3    0.346950  0.376630  0.636530
O4    0.385740  0.138840  0.654830
H5    0.282660  0.110200  0.862450
C6    0.648570  0.427650  0.007610
H7    0.582740  0.425610  0.098570
C8    0.794240  0.501900 -0.291290
O9    0.862530  0.562680 -0.485910
H10   0.797540  0.673300 -0.384730
C11   0.880120  0.503140 -0.410490
O12   1.022230  0.591300 -0.698740
H13   1.048580  0.690500 -0.792760
C14   0.818900  0.414900 -0.228160
O15   0.902320  0.397810 -0.343670
H16   0.994030  0.286470 -0.539230
C17   0.672600  0.343570  0.072360
H18   0.627560  0.282360  0.209270
O19   0.873220 -0.018730 -0.183140
H20   0.874130  0.141400 -0.221900
H21   0.899560  0.150020 -0.202420
