data_dwmh_21_1
# 1 E -75.10 d     1.59
_symmetry_cell_setting        monoclinic
_symmetry_space_group_name_H-M  'P 21'
_symmetry_Int_Tables_number  4
loop_
_symmetry-equiv_pos_site_id
_symmetry_equiv_pos_as_xyz
1 x,y,z
2 -x,1/2+y,-z
_cell_length_a      6.931
_cell_length_b      10.259
_cell_length_c      6.226
_cell_angle_alpha   90.0
_cell_angle_beta    117.75101
_cell_angle_gamma   90.0
_cell_volume        391.7809
loop_
_atom_site_label
_atom_site_type_symbol
_atom_site_fract_x
_atom_site_fract_y
_atom_site_fract_z
O1 O  0.52930 -0.06380 0.49860
O2 O  0.44060 -0.27290 0.46360
O3 O  -0.17210 0.18010 0.13470
O4 O  -0.48970 -0.00080 -0.01950
O5 O  -0.38970 -0.26220 0.05450
C6 C  0.15720 -0.11440 0.33300
C7 C  0.10320 0.01660 0.29370
C8 C  -0.11620 0.05080 0.17900
C9 C  -0.27600 -0.04260 0.10080
C10 C  -0.21910 -0.17410 0.14280
C11 C  -0.00450 -0.20840 0.25980
C12 C  0.38660 -0.15960 0.43780
H13 H  0.67820 -0.09460 0.54660
H14 H  0.21920 0.09610 0.34550
H15 H  -0.31960 0.19680 0.11350
H16 H  -0.59050 -0.07530 -0.06940
H17 H  -0.32930 -0.35060 0.07410
H18 H  0.03510 -0.31120 0.28930
O19 O  0.04580 0.41360 0.26730
H20 H  -0.03250 0.33090 0.20710
H21 H  -0.04740 0.47440 0.29940
