data_dellavalle.XXI.002
# Della Valle's submission for compound XXI, choice 2

# Compound  XXI
# Choice    2
# Energy    -368657.1680 kJ/mol
# Filename  00222/D0144200810/D0144200810.min

_symmetry_cell_setting                  Triclinic
_symmetry_space_group_name_H-M       'P -1'
_symmetry_Int_Tables_number                  2

loop_
_symmetry_equiv_pos_site_id
_symmetry_equiv_pos_as_xyz
   1 x,y,z
   2 -x,-y,-z

_cell_length_a         5.05300
_cell_length_b         9.58140
_cell_length_c         9.99520
_cell_angle_alpha      68.5960
_cell_angle_beta       79.6850
_cell_angle_gamma      77.6870
_cell_volume           437.442

loop_
_atom_site_label
_atom_site_type_symbol
_atom_site_fract_x
_atom_site_fract_y
_atom_site_fract_z
O17  O   0.32595  1.06375  0.29095
O18  O   0.05081  1.15885  0.13313
O19  O  -0.26138  0.60238  0.42887
O20  O   0.51068  0.61816  0.06208
O21  O   0.10634  0.45576  0.24557
C4   C   0.17590  1.04632  0.21646
C5   C  -0.05088  0.82259  0.31978
C6   C   0.33968  0.82559  0.14033
C7   C   0.11441  0.60022  0.24208
C8   C   0.31866  0.67951  0.14704
C9   C  -0.07185  0.67540  0.32816
C10  C   0.15366  0.90216  0.22463
O3   O   0.69523  0.22562  0.39997
H11  H   0.06743  1.25076  0.12734
H12  H   0.02264  0.39917  0.34274
H13  H  -0.44138  0.66331  0.40526
H14  H   0.42832  0.64854 -0.02864
H15  H  -0.18575  0.87116  0.38580
H16  H   0.49794  0.87470  0.07439
H1   H   0.55159  0.26095  0.33516
H2   H   0.69117  0.11606  0.44353


