data_default
_cell_volume           728.622892
_symmetry_space_group_name_H-M 'P 1'
_symmetry_Int_Tables_number 1
loop_
_symmetry_equiv_pos_site_id
_symmetry_equiv_pos_as_xyz
1 x,y,z
_cell_length_a         3.8378050000
_cell_length_b        11.1456280000
_cell_length_c        17.1991710000
_cell_angle_alpha        90.0000
_cell_angle_beta        82.0519
_cell_angle_gamma        90.0000
_cell_formula_units_Z 1
loop_
_atom_site_label
_atom_site_type_symbol
_atom_site_fract_x
_atom_site_fract_y
_atom_site_fract_z
C1     C      0.12631300000000     0.15797800000000     0.95958100000000
C1     C      0.87368700000000     0.65797800000000     0.54041900000000
C1     C      0.87368700000000     0.84202200000000     0.04041900000000
C1     C      0.12631300000000     0.34202200000000     0.45958100000000
C2     C      0.97887800000000     0.26741900000000     0.94377400000000
C2     C      0.02112200000000     0.76741900000000     0.55622600000000
C2     C      0.02112200000000     0.73258100000000     0.05622600000000
C2     C      0.97887800000000     0.23258100000000     0.44377400000000
C3     C      0.99540500000000     0.30684700000000     0.86589000000000
C3     C      0.00459500000000     0.80684700000000     0.63411000000000
C3     C      0.00459500000000     0.69315300000000     0.13411000000000
C3     C      0.99540500000000     0.19315300000000     0.36589000000000
C4     C      0.16070600000000     0.23348500000000     0.80547100000000
C4     C      0.83929400000000     0.73348500000000     0.69452900000000
C4     C      0.83929400000000     0.76651500000000     0.19452900000000
C4     C      0.16070600000000     0.26651500000000     0.30547100000000
C5     C      0.30675400000000     0.12475600000000     0.82354300000000
C5     C      0.69324600000000     0.62475600000000     0.67645700000000
C5     C      0.69324600000000     0.87524400000000     0.17645700000000
C5     C      0.30675400000000     0.37524400000000     0.32354300000000
C6     C      0.29354500000000     0.08420000000000     0.90051400000000
C6     C      0.70645500000000     0.58420000000000     0.59948600000000
C6     C      0.70645500000000     0.91580000000000     0.09948600000000
C6     C      0.29354500000000     0.41580000000000     0.40051400000000
Br1    Br     0.75910800000000     0.35971500000000     0.02821500000000
Br1    Br     0.24089200000000     0.85971500000000     0.47178500000000
Br1    Br     0.24089200000000     0.64028500000000     0.97178500000000
Br1    Br     0.75910800000000     0.14028500000000     0.52821500000000
Br2    Br     0.18907100000000     0.28005100000000     0.69960600000000
Br2    Br     0.81092900000000     0.78005100000000     0.80039400000000
Br2    Br     0.81092900000000     0.71994900000000     0.30039400000000
Br2    Br     0.18907100000000     0.21994900000000     0.19960600000000
Cl1    Cl     0.81689100000000     0.44219100000000     0.84460500000000
Cl1    Cl     0.18310900000000     0.94219100000000     0.65539500000000
Cl1    Cl     0.18310900000000     0.55780900000000     0.15539500000000
Cl1    Cl     0.81689100000000     0.05780900000000     0.34460500000000
F1     F      0.43626100000000     0.97930700000000     0.91708500000000
F1     F      0.56373900000000     0.47930700000000     0.58291500000000
F1     F      0.56373900000000     0.02069300000000     0.08291500000000
F1     F      0.43626100000000     0.52069300000000     0.41708500000000
H1     H      0.11306400000000     0.12813500000000     0.02074600000000
H1     H      0.88693600000000     0.62813500000000     0.47925400000000
H1     H      0.88693600000000     0.87186500000000     0.97925400000000
H1     H      0.11306400000000     0.37186500000000     0.52074600000000
H2     H      0.43914600000000     0.06822000000000     0.77613500000000
H2     H      0.56085400000000     0.56822000000000     0.72386500000000
H2     H      0.56085400000000     0.93178000000000     0.22386500000000
H2     H      0.43914600000000     0.43178000000000     0.27613500000000
