data_default
_cell_volume           387.229363
_symmetry_space_group_name_H-M 'P 1'
_symmetry_Int_Tables_number 1
loop_
_symmetry_equiv_pos_site_id
_symmetry_equiv_pos_as_xyz
1 x,y,z
_cell_length_a         7.0230000000
_cell_length_b         7.9040000000
_cell_length_c         7.8930000000
_cell_angle_alpha        99.8400
_cell_angle_beta        73.5400
_cell_angle_gamma        73.3900
_cell_formula_units_Z 1
loop_
_atom_site_label
_atom_site_type_symbol
_atom_site_fract_x
_atom_site_fract_y
_atom_site_fract_z
C1     C      0.32670000000000     0.87470000000000     0.86190000000000
C1     C      0.67330000000000     0.12530000000000     0.13810000000000
C2     C      0.32740000000000     0.98930000000000     0.74580000000000
C2     C      0.67260000000000     0.01070000000000     0.25420000000000
C3     C      0.25050000000000     0.17750000000000     0.82440000000000
C3     C      0.74950000000000     0.82250000000000     0.17560000000000
C4     C      0.17320000000000     0.25550000000000     0.01270000000000
C4     C      0.82680000000000     0.74450000000000     0.98730000000000
C5     C      0.17340000000000     0.13880000000000     0.12710000000000
C5     C      0.82660000000000     0.86120000000000     0.87290000000000
C6     C      0.25000000000000     0.94690000000000     0.05390000000000
C6     C      0.75000000000000     0.05310000000000     0.94610000000000
H7     H      0.38660000000000     0.93390000000000     0.59820000000000
H7     H      0.61340000000000     0.06610000000000     0.40180000000000
H8     H      0.11460000000000     0.40290000000000     0.06890000000000
H8     H      0.88540000000000     0.59710000000000     0.93110000000000
Cl9    Cl     0.24930000000000     0.80430000000000     0.19620000000000
Cl9    Cl     0.75070000000000     0.19570000000000     0.80380000000000
F10    F      0.25080000000000     0.29030000000000     0.71210000000000
F10    F      0.74920000000000     0.70970000000000     0.28790000000000
Br11   Br     0.06770000000000     0.24710000000000     0.38330000000000
Br11   Br     0.93230000000000     0.75290000000000     0.61670000000000
Br12   Br     0.43190000000000     0.61880000000000     0.75270000000000
Br12   Br     0.56810000000000     0.38120000000000     0.24730000000000
