data_default
_cell_volume           816.670325
_symmetry_space_group_name_H-M 'P 1'
_symmetry_Int_Tables_number 1
loop_
_symmetry_equiv_pos_site_id
_symmetry_equiv_pos_as_xyz
1 x,y,z
_cell_length_a         4.0900000000
_cell_length_b        10.9237000000
_cell_length_c        18.4529000000
_cell_angle_alpha        90.0000
_cell_angle_beta        97.8710
_cell_angle_gamma        90.0000
_cell_formula_units_Z 1
loop_
_atom_site_label
_atom_site_type_symbol
_atom_site_fract_x
_atom_site_fract_y
_atom_site_fract_z
Br8    Br     0.76050000000000     0.34078000000000     0.97668000000000
Br8    Br     0.23950000000000     0.84078000000000     0.52332000000000
Br8    Br     0.23950000000000     0.65922000000000     0.02332000000000
Br8    Br     0.76050000000000     0.15922000000000     0.47668000000000
Br12   Br     0.09436000000000     0.27064000000000     0.28756000000000
Br12   Br     0.90564000000000     0.77064000000000     0.21244000000000
Br12   Br     0.90564000000000     0.72936000000000     0.71244000000000
Br12   Br     0.09436000000000     0.22936000000000     0.78756000000000
Cl7    Cl     0.74066000000000     0.42642000000000     0.14630000000000
Cl7    Cl     0.25934000000000     0.92642000000000     0.35370000000000
Cl7    Cl     0.25934000000000     0.57358000000000     0.85370000000000
Cl7    Cl     0.74066000000000     0.07358000000000     0.64630000000000
F10    F      0.44110000000000     0.97371000000000     0.09309000000000
F10    F      0.55890000000000     0.47371000000000     0.40691000000000
F10    F      0.55890000000000     0.02629000000000     0.90691000000000
F10    F      0.44110000000000     0.52629000000000     0.59309000000000
C1     C      0.94814000000000     0.29232000000000     0.13054000000000
C1     C      0.05186000000000     0.79232000000000     0.36946000000000
C1     C      0.05186000000000     0.70768000000000     0.86946000000000
C1     C      0.94814000000000     0.20768000000000     0.63054000000000
C2     C      0.96427000000000     0.25141000000000     0.05895000000000
C2     C      0.03573000000000     0.75141000000000     0.44105000000000
C2     C      0.03573000000000     0.74859000000000     0.94105000000000
C2     C      0.96427000000000     0.24859000000000     0.55895000000000
C3     C      0.13017000000000     0.14397000000000     0.04584000000000
C3     C      0.86983000000000     0.64397000000000     0.45416000000000
C3     C      0.86983000000000     0.85603000000000     0.95416000000000
C3     C      0.13017000000000     0.35603000000000     0.54584000000000
C4     C      0.28064000000000     0.07742000000000     0.10528000000000
C4     C      0.71936000000000     0.57742000000000     0.39472000000000
C4     C      0.71936000000000     0.92258000000000     0.89472000000000
C4     C      0.28064000000000     0.42258000000000     0.60528000000000
C5     C      0.27090000000000     0.11441000000000     0.17688000000000
C5     C      0.72910000000000     0.61441000000000     0.32312000000000
C5     C      0.72910000000000     0.88559000000000     0.82312000000000
C5     C      0.27090000000000     0.38559000000000     0.67688000000000
C6     C      0.10401000000000     0.22206000000000     0.18906000000000
C6     C      0.89599000000000     0.72206000000000     0.31094000000000
C6     C      0.89599000000000     0.77794000000000     0.81094000000000
C6     C      0.10401000000000     0.27794000000000     0.68906000000000
H9     H      0.14223000000000     0.11265000000000     0.99061000000000
H9     H      0.85777000000000     0.61265000000000     0.50939000000000
H9     H      0.85777000000000     0.88735000000000     0.00939000000000
H9     H      0.14223000000000     0.38735000000000     0.49061000000000
H11    H      0.39083000000000     0.06042000000000     0.22210000000000
H11    H      0.60917000000000     0.56042000000000     0.27790000000000
H11    H      0.60917000000000     0.93958000000000     0.77790000000000
H11    H      0.39083000000000     0.43958000000000     0.72210000000000
