data_default
_cell_volume          3054.106738
_symmetry_space_group_name_H-M 'P 1'
_symmetry_Int_Tables_number 1
loop_
_symmetry_equiv_pos_site_id
_symmetry_equiv_pos_as_xyz
1 x,y,z
_cell_length_a        27.4692009358
_cell_length_b        28.8604472564
_cell_length_c         3.8524332968
_cell_angle_alpha        90.0000
_cell_angle_beta        90.0000
_cell_angle_gamma        90.0000
_cell_formula_units_Z 1
loop_
_atom_site_label
_atom_site_type_symbol
_atom_site_fract_x
_atom_site_fract_y
_atom_site_fract_z
C0_0   C      0.35699684441817     0.33243135796243     0.41487730997995
C0_0   C      0.35699684441817     0.83243135796243     0.91487730997995
C0_0   C      0.85699684441817     0.33243135796243     0.91487730997995
C0_0   C      0.85699684441817     0.83243135796243     0.41487730997995
C0_0   C      0.64300315558183     0.66756864203757     0.41487730997995
C0_0   C      0.64300315558183     0.16756864203757     0.91487730997995
C0_0   C      0.14300315558183     0.66756864203757     0.91487730997995
C0_0   C      0.14300315558183     0.16756864203757     0.41487730997995
C0_0   C      0.60699684441817     0.91756864203757     0.66487730997995
C0_0   C      0.60699684441817     0.41756864203757     0.16487730997995
C0_0   C      0.10699684441817     0.91756864203757     0.16487730997995
C0_0   C      0.10699684441817     0.41756864203757     0.66487730997995
C0_0   C      0.89300315558183     0.58243135796243     0.66487730997995
C0_0   C      0.89300315558183     0.08243135796243     0.16487730997995
C0_0   C      0.39300315558183     0.58243135796243     0.16487730997995
C0_0   C      0.39300315558183     0.08243135796243     0.66487730997995
C1_0   C      0.39276146683152     0.29871748249909     0.45679165539265
C1_0   C      0.39276146683152     0.79871748249909     0.95679165539265
C1_0   C      0.89276146683152     0.29871748249909     0.95679165539265
C1_0   C      0.89276146683152     0.79871748249909     0.45679165539265
C1_0   C      0.60723853316848     0.70128251750091     0.45679165539265
C1_0   C      0.60723853316848     0.20128251750091     0.95679165539265
C1_0   C      0.10723853316848     0.70128251750091     0.95679165539265
C1_0   C      0.10723853316848     0.20128251750091     0.45679165539265
C1_0   C      0.64276146683152     0.95128251750091     0.70679165539265
C1_0   C      0.64276146683152     0.45128251750091     0.20679165539265
C1_0   C      0.14276146683152     0.95128251750091     0.20679165539265
C1_0   C      0.14276146683152     0.45128251750091     0.70679165539265
C1_0   C      0.85723853316848     0.54871748249909     0.70679165539265
C1_0   C      0.85723853316848     0.04871748249909     0.20679165539265
C1_0   C      0.35723853316848     0.54871748249909     0.20679165539265
C1_0   C      0.35723853316848     0.04871748249909     0.70679165539265
C3_0   C      0.36640943792079     0.37949036506726     0.47920947535983
C3_0   C      0.36640943792079     0.87949036506726     0.97920947535983
C3_0   C      0.86640943792079     0.37949036506726     0.97920947535983
C3_0   C      0.86640943792079     0.87949036506726     0.47920947535983
C3_0   C      0.63359056207921     0.62050963493274     0.47920947535983
C3_0   C      0.63359056207921     0.12050963493274     0.97920947535983
C3_0   C      0.13359056207921     0.62050963493274     0.97920947535983
C3_0   C      0.13359056207921     0.12050963493274     0.47920947535983
C3_0   C      0.61640943792079     0.87050963493274     0.72920947535983
C3_0   C      0.61640943792079     0.37050963493274     0.22920947535983
C3_0   C      0.11640943792079     0.87050963493274     0.22920947535983
C3_0   C      0.11640943792079     0.37050963493274     0.72920947535983
C3_0   C      0.88359056207921     0.62949036506726     0.72920947535983
C3_0   C      0.88359056207921     0.12949036506726     0.22920947535983
C3_0   C      0.38359056207921     0.62949036506726     0.22920947535983
C3_0   C      0.38359056207921     0.12949036506726     0.72920947535983
Br6_0  Br     0.29412525200999     0.31319980754299     0.27043017928290
Br6_0  Br     0.29412525200999     0.81319980754299     0.77043017928290
Br6_0  Br     0.79412525200999     0.31319980754299     0.77043017928290
Br6_0  Br     0.79412525200999     0.81319980754299     0.27043017928290
Br6_0  Br     0.70587474799001     0.68680019245701     0.27043017928290
Br6_0  Br     0.70587474799001     0.18680019245701     0.77043017928290
Br6_0  Br     0.20587474799001     0.68680019245701     0.77043017928290
Br6_0  Br     0.20587474799001     0.18680019245701     0.27043017928290
Br6_0  Br     0.54412525200999     0.93680019245701     0.52043017928290
Br6_0  Br     0.54412525200999     0.43680019245701     0.02043017928290
Br6_0  Br     0.04412525200999     0.93680019245701     0.02043017928290
Br6_0  Br     0.04412525200999     0.43680019245701     0.52043017928290
Br6_0  Br     0.95587474799001     0.56319980754299     0.52043017928290
Br6_0  Br     0.95587474799001     0.06319980754299     0.02043017928290
Br6_0  Br     0.45587474799001     0.56319980754299     0.02043017928290
Br6_0  Br     0.45587474799001     0.06319980754299     0.52043017928290
C2_0   C      0.43846201490951     0.31291364285944     0.56653591816182
C2_0   C      0.43846201490951     0.81291364285944     0.06653591816182
C2_0   C      0.93846201490951     0.31291364285944     0.06653591816182
C2_0   C      0.93846201490951     0.81291364285944     0.56653591816182
C2_0   C      0.56153798509049     0.68708635714056     0.56653591816182
C2_0   C      0.56153798509049     0.18708635714056     0.06653591816182
C2_0   C      0.06153798509049     0.68708635714056     0.06653591816182
C2_0   C      0.06153798509049     0.18708635714056     0.56653591816182
C2_0   C      0.68846201490951     0.93708635714056     0.81653591816182
C2_0   C      0.68846201490951     0.43708635714056     0.31653591816182
C2_0   C      0.18846201490951     0.93708635714056     0.31653591816182
C2_0   C      0.18846201490951     0.43708635714056     0.81653591816182
C2_0   C      0.81153798509049     0.56291364285944     0.81653591816182
C2_0   C      0.81153798509049     0.06291364285944     0.31653591816182
C2_0   C      0.31153798509049     0.56291364285944     0.31653591816182
C2_0   C      0.31153798509049     0.06291364285944     0.81653591816182
H10_0  H      0.38536722927825     0.26231704838734     0.40761407898362
H10_0  H      0.38536722927825     0.76231704838734     0.90761407898362
H10_0  H      0.88536722927825     0.26231704838734     0.90761407898362
H10_0  H      0.88536722927825     0.76231704838734     0.40761407898362
H10_0  H      0.61463277072175     0.73768295161266     0.40761407898362
H10_0  H      0.61463277072175     0.23768295161266     0.90761407898362
H10_0  H      0.11463277072175     0.73768295161266     0.90761407898362
H10_0  H      0.11463277072175     0.23768295161266     0.40761407898362
H10_0  H      0.63536722927825     0.98768295161266     0.65761407898362
H10_0  H      0.63536722927825     0.48768295161266     0.15761407898362
H10_0  H      0.13536722927825     0.98768295161266     0.15761407898362
H10_0  H      0.13536722927825     0.48768295161266     0.65761407898362
H10_0  H      0.86463277072175     0.51231704838734     0.65761407898362
H10_0  H      0.86463277072175     0.01231704838734     0.15761407898362
H10_0  H      0.36463277072175     0.51231704838734     0.15761407898362
H10_0  H      0.36463277072175     0.01231704838734     0.65761407898362
C4_0   C      0.41331141371488     0.39182123560189     0.59115595156699
C4_0   C      0.41331141371488     0.89182123560189     0.09115595156699
C4_0   C      0.91331141371488     0.39182123560189     0.09115595156699
C4_0   C      0.91331141371488     0.89182123560189     0.59115595156699
C4_0   C      0.58668858628512     0.60817876439811     0.59115595156699
C4_0   C      0.58668858628512     0.10817876439811     0.09115595156699
C4_0   C      0.08668858628512     0.60817876439811     0.09115595156699
C4_0   C      0.08668858628512     0.10817876439811     0.59115595156699
C4_0   C      0.66331141371488     0.85817876439811     0.84115595156699
C4_0   C      0.66331141371488     0.35817876439811     0.34115595156699
C4_0   C      0.16331141371488     0.85817876439811     0.34115595156699
C4_0   C      0.16331141371488     0.35817876439811     0.84115595156699
C4_0   C      0.83668858628512     0.64182123560189     0.84115595156699
C4_0   C      0.83668858628512     0.14182123560189     0.34115595156699
C4_0   C      0.33668858628512     0.64182123560189     0.34115595156699
C4_0   C      0.33668858628512     0.14182123560189     0.84115595156699
Cl9_0  Cl     0.32196978260210     0.42080266344667     0.42274774272418
Cl9_0  Cl     0.32196978260210     0.92080266344667     0.92274774272418
Cl9_0  Cl     0.82196978260210     0.42080266344667     0.92274774272418
Cl9_0  Cl     0.82196978260210     0.92080266344667     0.42274774272418
Cl9_0  Cl     0.67803021739790     0.57919733655333     0.42274774272418
Cl9_0  Cl     0.67803021739790     0.07919733655333     0.92274774272418
Cl9_0  Cl     0.17803021739790     0.57919733655333     0.92274774272418
Cl9_0  Cl     0.17803021739790     0.07919733655333     0.42274774272418
Cl9_0  Cl     0.57196978260210     0.82919733655333     0.67274774272418
Cl9_0  Cl     0.57196978260210     0.32919733655333     0.17274774272418
Cl9_0  Cl     0.07196978260210     0.82919733655333     0.17274774272418
Cl9_0  Cl     0.07196978260210     0.32919733655333     0.67274774272418
Cl9_0  Cl     0.92803021739790     0.67080266344667     0.67274774272418
Cl9_0  Cl     0.92803021739790     0.17080266344667     0.17274774272418
Cl9_0  Cl     0.42803021739790     0.67080266344667     0.17274774272418
Cl9_0  Cl     0.42803021739790     0.17080266344667     0.67274774272418
C5_0   C      0.44977188356795     0.35882899797683     0.63490097700668
C5_0   C      0.44977188356795     0.85882899797683     0.13490097700668
C5_0   C      0.94977188356795     0.35882899797683     0.13490097700668
C5_0   C      0.94977188356795     0.85882899797683     0.63490097700668
C5_0   C      0.55022811643205     0.64117100202317     0.63490097700668
C5_0   C      0.55022811643205     0.14117100202317     0.13490097700668
C5_0   C      0.05022811643205     0.64117100202317     0.13490097700668
C5_0   C      0.05022811643205     0.14117100202317     0.63490097700668
C5_0   C      0.69977188356795     0.89117100202317     0.88490097700668
C5_0   C      0.69977188356795     0.39117100202317     0.38490097700668
C5_0   C      0.19977188356795     0.89117100202317     0.38490097700668
C5_0   C      0.19977188356795     0.39117100202317     0.88490097700668
C5_0   C      0.80022811643205     0.60882899797683     0.88490097700668
C5_0   C      0.80022811643205     0.10882899797683     0.38490097700668
C5_0   C      0.30022811643205     0.60882899797683     0.38490097700668
C5_0   C      0.30022811643205     0.10882899797683     0.88490097700668
F7_0   F      0.47367071581894     0.28039685553156     0.61134943028752
F7_0   F      0.47367071581894     0.78039685553156     0.11134943028752
F7_0   F      0.97367071581894     0.28039685553156     0.11134943028752
F7_0   F      0.97367071581894     0.78039685553156     0.61134943028752
F7_0   F      0.52632928418106     0.71960314446844     0.61134943028752
F7_0   F      0.52632928418106     0.21960314446844     0.11134943028752
F7_0   F      0.02632928418106     0.71960314446844     0.11134943028752
F7_0   F      0.02632928418106     0.21960314446844     0.61134943028752
F7_0   F      0.72367071581894     0.96960314446844     0.86134943028752
F7_0   F      0.72367071581894     0.46960314446844     0.36134943028752
F7_0   F      0.22367071581894     0.96960314446844     0.36134943028752
F7_0   F      0.22367071581894     0.46960314446844     0.86134943028752
F7_0   F      0.77632928418106     0.53039685553156     0.86134943028752
F7_0   F      0.77632928418106     0.03039685553156     0.36134943028752
F7_0   F      0.27632928418106     0.53039685553156     0.36134943028752
F7_0   F      0.27632928418106     0.03039685553156     0.86134943028752
Br8_0  Br     0.42839033622497     0.45452523824879     0.69416569744686
Br8_0  Br     0.42839033622497     0.95452523824879     0.19416569744686
Br8_0  Br     0.92839033622497     0.45452523824879     0.19416569744686
Br8_0  Br     0.92839033622497     0.95452523824879     0.69416569744686
Br8_0  Br     0.57160966377503     0.54547476175121     0.69416569744686
Br8_0  Br     0.57160966377503     0.04547476175121     0.19416569744686
Br8_0  Br     0.07160966377503     0.54547476175121     0.19416569744686
Br8_0  Br     0.07160966377503     0.04547476175121     0.69416569744686
Br8_0  Br     0.67839033622497     0.79547476175121     0.94416569744686
Br8_0  Br     0.67839033622497     0.29547476175121     0.44416569744686
Br8_0  Br     0.17839033622497     0.79547476175121     0.44416569744686
Br8_0  Br     0.17839033622497     0.29547476175121     0.94416569744686
Br8_0  Br     0.82160966377503     0.70452523824879     0.94416569744686
Br8_0  Br     0.82160966377503     0.20452523824879     0.44416569744686
Br8_0  Br     0.32160966377503     0.70452523824879     0.44416569744686
Br8_0  Br     0.32160966377503     0.20452523824879     0.94416569744686
H11_0  H      0.48605851027674     0.36838850151654     0.72138586310699
H11_0  H      0.48605851027674     0.86838850151654     0.22138586310699
H11_0  H      0.98605851027674     0.36838850151654     0.22138586310699
H11_0  H      0.98605851027674     0.86838850151654     0.72138586310699
H11_0  H      0.51394148972326     0.63161149848346     0.72138586310699
H11_0  H      0.51394148972326     0.13161149848346     0.22138586310699
H11_0  H      0.01394148972326     0.63161149848346     0.22138586310699
H11_0  H      0.01394148972326     0.13161149848346     0.72138586310699
H11_0  H      0.73605851027674     0.88161149848346     0.97138586310699
H11_0  H      0.73605851027674     0.38161149848346     0.47138586310699
H11_0  H      0.23605851027674     0.88161149848346     0.47138586310699
H11_0  H      0.23605851027674     0.38161149848346     0.97138586310699
H11_0  H      0.76394148972326     0.61838850151654     0.97138586310699
H11_0  H      0.76394148972326     0.11838850151654     0.47138586310699
H11_0  H      0.26394148972326     0.61838850151654     0.47138586310699
H11_0  H      0.26394148972326     0.11838850151654     0.97138586310699
