data_default
_cell_volume           827.445444
_symmetry_space_group_name_H-M 'P 1'
_symmetry_Int_Tables_number 1
loop_
_symmetry_equiv_pos_site_id
_symmetry_equiv_pos_as_xyz
1 x,y,z
_cell_length_a        17.0430000000
_cell_length_b         9.5342000000
_cell_length_c        17.8817000000
_cell_angle_alpha       122.2220
_cell_angle_beta       156.7120
_cell_angle_gamma        71.6786
_cell_formula_units_Z 1
loop_
_atom_site_label
_atom_site_type_symbol
_atom_site_fract_x
_atom_site_fract_y
_atom_site_fract_z
C1     C      0.07734000000000     0.30265000000000     0.61645000000000
C1     C      0.92266000000000     0.69735000000000     0.38355000000000
C2     C      0.15991000000000     0.49840000000000     0.75679000000000
C2     C      0.84009000000000     0.50160000000000     0.24321000000000
C3     C      0.28629000000000     0.63536000000000     0.85077000000000
C3     C      0.71371000000000     0.36464000000000     0.14923000000000
C4     C      0.33010000000000     0.57729000000000     0.80377000000000
C4     C      0.66990000000000     0.42271000000000     0.19623000000000
C5     C      0.24595000000000     0.37910000000000     0.66218000000000
C5     C      0.75405000000000     0.62090000000000     0.33782000000000
C6     C      0.12014000000000     0.24244000000000     0.56907000000000
C6     C      0.87986000000000     0.75756000000000     0.43093000000000
H1     H      0.12668000000000     0.54317000000000     0.79383000000000
H1     H      0.87332000000000     0.45683000000000     0.20617000000000
H2     H      0.05512000000000     0.08889000000000     0.45982000000000
H2     H      0.94488000000000     0.91111000000000     0.54018000000000
Cl1    Cl     0.48639000000000     0.74779000000000     0.91975000000000
Cl1    Cl     0.51361000000000     0.25221000000000     0.08025000000000
F1     F      0.95825000000000     0.17217000000000     0.52921000000000
F1     F      0.04175000000000     0.82783000000000     0.47079000000000
Br1    Br     0.30038000000000     0.28766000000000     0.59260000000000
Br1    Br     0.69962000000000     0.71234000000000     0.40740000000000
Br2    Br     0.39998000000000     0.90150000000000     0.04766000000000
Br2    Br     0.60002000000000     0.09850000000000     0.95234000000000
C1     C      0.42269000000000     0.77560000000000     0.46180000000000
C1     C      0.57731000000000     0.22440000000000     0.53820000000000
C2     C      0.37988000000000     0.65544000000000     0.32880000000000
C2     C      0.62012000000000     0.34456000000000     0.67120000000000
C3     C      0.25407000000000     0.45339000000000     0.17030000000000
C3     C      0.74593000000000     0.54661000000000     0.82970000000000
C4     C      0.16993000000000     0.37007000000000     0.14360000000000
C4     C      0.83007000000000     0.62993000000000     0.85640000000000
C5     C      0.21376000000000     0.49361000000000     0.27823000000000
C5     C      0.78624000000000     0.50639000000000     0.72177000000000
C6     C      0.34014000000000     0.69538000000000     0.43702000000000
C6     C      0.65986000000000     0.30462000000000     0.56298000000000
H1     H      0.44489000000000     0.72053000000000     0.34959000000000
H1     H      0.55511000000000     0.27947000000000     0.65041000000000
H2     H      0.37338000000000     0.79118000000000     0.54054000000000
H2     H      0.62662000000000     0.20882000000000     0.45946000000000
Cl1    Cl     0.01364000000000     0.11896000000000     0.94700000000000
Cl1    Cl     0.98636000000000     0.88104000000000     0.05300000000000
F1     F      0.54179000000000     0.96978000000000     0.61275000000000
F1     F      0.45821000000000     0.03022000000000     0.38725000000000
Br1    Br     0.10008000000000     0.39389000000000     0.24775000000000
Br1    Br     0.89992000000000     0.60611000000000     0.75225000000000
Br2    Br     0.19963000000000     0.29679000000000     0.99184000000000
Br2    Br     0.80037000000000     0.70321000000000     0.00816000000000
