data_default
_cell_volume           736.873495
_symmetry_space_group_name_H-M 'P 1'
_symmetry_Int_Tables_number 1
loop_
_symmetry_equiv_pos_site_id
_symmetry_equiv_pos_as_xyz
1 x,y,z
_cell_length_a         3.9150000000
_cell_length_b        11.3020000000
_cell_length_c        16.6690000000
_cell_angle_alpha        90.0000
_cell_angle_beta        92.4700
_cell_angle_gamma        90.0000
_cell_formula_units_Z 1
loop_
_atom_site_label
_atom_site_type_symbol
_atom_site_fract_x
_atom_site_fract_y
_atom_site_fract_z
C1     C      0.58345000000000     0.77348000000000     0.05572000000000
C1     C      0.41655000000000     0.22652000000000     0.94428000000000
C1     C      0.91655000000000     0.27348000000000     0.44428000000000
C1     C      0.08345000000000     0.72652000000000     0.55572000000000
C2     C      0.42628000000000     0.66539000000000     0.03815000000000
C2     C      0.57372000000000     0.33461000000000     0.96185000000000
C2     C      0.07372000000000     0.16539000000000     0.46185000000000
C2     C      0.92628000000000     0.83461000000000     0.53815000000000
C3     C      0.32861000000000     0.59489000000000     0.10133000000000
C3     C      0.67139000000000     0.40511000000000     0.89867000000000
C3     C      0.17139000000000     0.09489000000000     0.39867000000000
C3     C      0.82861000000000     0.90511000000000     0.60133000000000
C4     C      0.38234000000000     0.62852000000000     0.18093000000000
C4     C      0.61766000000000     0.37148000000000     0.81907000000000
C4     C      0.11766000000000     0.12852000000000     0.31907000000000
C4     C      0.88234000000000     0.87148000000000     0.68093000000000
C5     C      0.53982000000000     0.73686000000000     0.19748000000000
C5     C      0.46018000000000     0.26314000000000     0.80252000000000
C5     C      0.96018000000000     0.23686000000000     0.30252000000000
C5     C      0.03982000000000     0.76314000000000     0.69748000000000
C6     C      0.64294000000000     0.81109000000000     0.13542000000000
C6     C      0.35706000000000     0.18891000000000     0.86458000000000
C6     C      0.85706000000000     0.31109000000000     0.36458000000000
C6     C      0.14294000000000     0.68891000000000     0.63542000000000
F7     F      0.17690000000000     0.49054000000000     0.08488000000000
F7     F      0.82310000000000     0.50946000000000     0.91512000000000
F7     F      0.32310000000000     0.99054000000000     0.41512000000000
F7     F      0.67690000000000     0.00946000000000     0.58488000000000
Br8    Br     0.61041000000000     0.78083000000000     0.30688000000000
Br8    Br     0.38959000000000     0.21917000000000     0.69312000000000
Br8    Br     0.88959000000000     0.28083000000000     0.19312000000000
Br8    Br     0.11041000000000     0.71917000000000     0.80688000000000
Cl9    Cl     0.83912000000000     0.94603000000000     0.15669000000000
Cl9    Cl     0.16088000000000     0.05397000000000     0.84331000000000
Cl9    Cl     0.66088000000000     0.44603000000000     0.34331000000000
Cl9    Cl     0.33912000000000     0.55397000000000     0.65669000000000
Br10   Br     0.71463000000000     0.86830000000000     0.96820000000000
Br10   Br     0.28537000000000     0.13170000000000     0.03180000000000
Br10   Br     0.78537000000000     0.36830000000000     0.53180000000000
Br10   Br     0.21463000000000     0.63170000000000     0.46820000000000
H11    H      0.30314000000000     0.57149000000000     0.22885000000000
H11    H      0.69686000000000     0.42851000000000     0.77115000000000
H11    H      0.19686000000000     0.07149000000000     0.27115000000000
H11    H      0.80314000000000     0.92851000000000     0.72885000000000
H12    H      0.38073000000000     0.63662000000000     0.97670000000000
H12    H      0.61927000000000     0.36338000000000     0.02330000000000
H12    H      0.11927000000000     0.13662000000000     0.52330000000000
H12    H      0.88073000000000     0.86338000000000     0.47670000000000
