data_default
_cell_volume           764.436689
_symmetry_space_group_name_H-M 'P 1'
_symmetry_Int_Tables_number 1
loop_
_symmetry_equiv_pos_site_id
_symmetry_equiv_pos_as_xyz
1 x,y,z
_cell_length_a         7.7351000000
_cell_length_b        14.1001000000
_cell_length_c         7.1625000000
_cell_angle_alpha        90.0000
_cell_angle_beta       101.8850
_cell_angle_gamma        90.0000
_cell_formula_units_Z 1
loop_
_atom_site_label
_atom_site_type_symbol
_atom_site_fract_x
_atom_site_fract_y
_atom_site_fract_z
Br1    Br     0.79446000000000     0.34311000000000     0.44817000000000
Br1    Br     0.20554000000000     0.84311000000000     0.05183000000000
Br1    Br     0.20554000000000     0.65689000000000     0.55183000000000
Br1    Br     0.79446000000000     0.15689000000000     0.94817000000000
Br2    Br     0.20882000000000     0.08260000000000     0.28135000000000
Br2    Br     0.79118000000000     0.58260000000000     0.21865000000000
Br2    Br     0.79118000000000     0.91740000000000     0.71865000000000
Br2    Br     0.20882000000000     0.41740000000000     0.78135000000000
Cl1    Cl     0.63283000000000     0.12740000000000     0.40676000000000
Cl1    Cl     0.36717000000000     0.62740000000000     0.09324000000000
Cl1    Cl     0.36717000000000     0.87260000000000     0.59324000000000
Cl1    Cl     0.63283000000000     0.37260000000000     0.90676000000000
F1     F      0.14093000000000     0.44782000000000     0.24928000000000
F1     F      0.85907000000000     0.94782000000000     0.25072000000000
F1     F      0.85907000000000     0.55218000000000     0.75072000000000
F1     F      0.14093000000000     0.05218000000000     0.74928000000000
C1     C      0.48711000000000     0.22232000000000     0.36011000000000
C1     C      0.51289000000000     0.72232000000000     0.13989000000000
C1     C      0.51289000000000     0.77768000000000     0.63989000000000
C1     C      0.48711000000000     0.27768000000000     0.86011000000000
C2     C      0.54925000000000     0.31618000000000     0.37568000000000
C2     C      0.45075000000000     0.81618000000000     0.12432000000000
C2     C      0.45075000000000     0.68382000000000     0.62432000000000
C2     C      0.54925000000000     0.18382000000000     0.87568000000000
C3     C      0.25363000000000     0.37441000000000     0.28536000000000
C3     C      0.74637000000000     0.87441000000000     0.21464000000000
C3     C      0.74637000000000     0.62559000000000     0.71464000000000
C3     C      0.25363000000000     0.12559000000000     0.78536000000000
C4     C      0.30416000000000     0.20715000000000     0.30586000000000
C4     C      0.69584000000000     0.70715000000000     0.19414000000000
C4     C      0.69584000000000     0.79285000000000     0.69414000000000
C4     C      0.30416000000000     0.29285000000000     0.80586000000000
C5     C      0.43330000000000     0.39270000000000     0.33852000000000
C5     C      0.56670000000000     0.89270000000000     0.16148000000000
C5     C      0.56670000000000     0.60730000000000     0.66148000000000
C5     C      0.43330000000000     0.10730000000000     0.83852000000000
C6     C      0.18641000000000     0.28287000000000     0.26820000000000
C6     C      0.81359000000000     0.78287000000000     0.23180000000000
C6     C      0.81359000000000     0.71713000000000     0.73180000000000
C6     C      0.18641000000000     0.21713000000000     0.76820000000000
H1     H      0.48155000000000     0.46494000000000     0.35063000000000
H1     H      0.51845000000000     0.96494000000000     0.14937000000000
H1     H      0.51845000000000     0.53506000000000     0.64937000000000
H1     H      0.48155000000000     0.03506000000000     0.85063000000000
H2     H      0.04551000000000     0.27098000000000     0.22643000000000
H2     H      0.95449000000000     0.77098000000000     0.27357000000000
H2     H      0.95449000000000     0.72902000000000     0.77357000000000
H2     H      0.04551000000000     0.22902000000000     0.72643000000000
