data_default
_cell_volume           728.513304
_symmetry_space_group_name_H-M 'P 1'
_symmetry_Int_Tables_number 1
loop_
_symmetry_equiv_pos_site_id
_symmetry_equiv_pos_as_xyz
1 x,y,z
_cell_length_a        11.5638400000
_cell_length_b        17.3042600000
_cell_length_c         3.8200900000
_cell_angle_alpha        90.0000
_cell_angle_beta        72.3705
_cell_angle_gamma        90.0000
_cell_formula_units_Z 1
loop_
_atom_site_label
_atom_site_type_symbol
_atom_site_fract_x
_atom_site_fract_y
_atom_site_fract_z
C1     C      0.34655000000000     0.45131000000000     0.75141000000000
C1     C      0.15345000000000     0.95131000000000     0.74859000000000
C1     C      0.65345000000000     0.54869000000000     0.24859000000000
C1     C      0.84655000000000     0.04869000000000     0.25141000000000
C2     C      0.41939000000000     0.38939000000000     0.76642000000000
C2     C      0.08061000000000     0.88939000000000     0.73358000000000
C2     C      0.58061000000000     0.61061000000000     0.23358000000000
C2     C      0.91939000000000     0.11061000000000     0.26642000000000
C3     C      0.38564000000000     0.31450000000000     0.72724000000000
C3     C      0.11436000000000     0.81450000000000     0.77276000000000
C3     C      0.61436000000000     0.68550000000000     0.27276000000000
C3     C      0.88564000000000     0.18550000000000     0.22724000000000
C4     C      0.27463000000000     0.30146000000000     0.67097000000000
C4     C      0.22537000000000     0.80146000000000     0.82903000000000
C4     C      0.72537000000000     0.69854000000000     0.32903000000000
C4     C      0.77463000000000     0.19854000000000     0.17097000000000
C5     C      0.19804000000000     0.36244000000000     0.65391000000000
C5     C      0.30196000000000     0.86244000000000     0.84609000000000
C5     C      0.80196000000000     0.63756000000000     0.34609000000000
C5     C      0.69804000000000     0.13756000000000     0.15391000000000
C6     C      0.23582000000000     0.43735000000000     0.69496000000000
C6     C      0.26418000000000     0.93735000000000     0.80504000000000
C6     C      0.76418000000000     0.56265000000000     0.30504000000000
C6     C      0.73582000000000     0.06265000000000     0.19496000000000
H7     H      0.37557000000000     0.50902000000000     0.78300000000000
H7     H      0.12443000000000     0.00902000000000     0.71700000000000
H7     H      0.62443000000000     0.49098000000000     0.21700000000000
H7     H      0.87557000000000     0.99098000000000     0.28300000000000
H8     H      0.44456000000000     0.26749000000000     0.74032000000000
H8     H      0.05544000000000     0.76749000000000     0.75968000000000
H8     H      0.55544000000000     0.73251000000000     0.25968000000000
H8     H      0.94456000000000     0.23251000000000     0.24032000000000
CL9    Cl     0.05960000000000     0.34557000000000     0.58355000000000
CL9    Cl     0.44040000000000     0.84557000000000     0.91645000000000
CL9    Cl     0.94040000000000     0.65443000000000     0.41645000000000
CL9    Cl     0.55960000000000     0.15443000000000     0.08355000000000
F10    F      0.52548000000000     0.40232000000000     0.82031000000000
F10    F      0.97452000000000     0.90232000000000     0.67969000000000
F10    F      0.47452000000000     0.59768000000000     0.17969000000000
F10    F      0.02548000000000     0.09768000000000     0.32031000000000
BR11   Br     0.23172000000000     0.19791000000000     0.61856000000000
BR11   Br     0.26828000000000     0.69791000000000     0.88144000000000
BR11   Br     0.76828000000000     0.80209000000000     0.38144000000000
BR11   Br     0.73172000000000     0.30209000000000     0.11856000000000
BR12   Br     0.13862000000000     0.52383000000000     0.67612000000000
BR12   Br     0.36138000000000     0.02383000000000     0.82388000000000
BR12   Br     0.86138000000000     0.47617000000000     0.32388000000000
BR12   Br     0.63862000000000     0.97617000000000     0.17612000000000
