data_default
_cell_volume           773.488967
_symmetry_space_group_name_H-M 'P 1'
_symmetry_Int_Tables_number 1
loop_
_symmetry_equiv_pos_site_id
_symmetry_equiv_pos_as_xyz
1 x,y,z
_cell_length_a        18.6690000000
_cell_length_b        11.3980000000
_cell_length_c         3.6350000000
_cell_angle_alpha        90.0000
_cell_angle_beta        90.0000
_cell_angle_gamma        90.0000
_cell_formula_units_Z 1
loop_
_atom_site_label
_atom_site_type_symbol
_atom_site_fract_x
_atom_site_fract_y
_atom_site_fract_z
C1     C      0.49090000000000     0.74922000000000     0.50097000000000
C1     C      0.00910000000000     0.25078000000000     0.00097000000000
C1     C      0.50910000000000     0.24922000000000     0.99903000000000
C1     C      0.99090000000000     0.75078000000000     0.49903000000000
C2     C      0.52647000000000     0.64330000000000     0.51099000000000
C2     C      0.97353000000000     0.35670000000000     0.01099000000000
C2     C      0.47353000000000     0.14330000000000     0.98901000000000
C2     C      0.02647000000000     0.85670000000000     0.48901000000000
C3     C      0.60054000000000     0.64437000000000     0.51280000000000
C3     C      0.89946000000000     0.35563000000000     0.01280000000000
C3     C      0.39946000000000     0.14437000000000     0.98720000000000
C3     C      0.10054000000000     0.85563000000000     0.48720000000000
C4     C      0.63891000000000     0.74931000000000     0.50475000000000
C4     C      0.86109000000000     0.25069000000000     0.00475000000000
C4     C      0.36109000000000     0.24931000000000     0.99525000000000
C4     C      0.13891000000000     0.75069000000000     0.49525000000000
C5     C      0.60052000000000     0.85420000000000     0.49475000000000
C5     C      0.89948000000000     0.14580000000000     0.99475000000000
C5     C      0.39948000000000     0.35420000000000     0.00525000000000
C5     C      0.10052000000000     0.64580000000000     0.50525000000000
C6     C      0.52644000000000     0.85518000000000     0.49277000000000
C6     C      0.97356000000000     0.14482000000000     0.99277000000000
C6     C      0.47356000000000     0.35518000000000     0.00723000000000
C6     C      0.02644000000000     0.64482000000000     0.50723000000000
Cl7    Cl     0.73026000000000     0.74936000000000     0.50708000000000
Cl7    Cl     0.76974000000000     0.25064000000000     0.00708000000000
Cl7    Cl     0.26974000000000     0.24936000000000     0.99292000000000
Cl7    Cl     0.23026000000000     0.75064000000000     0.49292000000000
Br8    Br     0.64910000000000     0.99874000000000     0.48356000000000
Br8    Br     0.85090000000000     0.00126000000000     0.98356000000000
Br8    Br     0.35090000000000     0.49874000000000     0.01644000000000
Br8    Br     0.14910000000000     0.50126000000000     0.51644000000000
Br9    Br     0.64917000000000     0.49988000000000     0.52647000000000
Br9    Br     0.85083000000000     0.50012000000000     0.02647000000000
Br9    Br     0.35083000000000     0.99988000000000     0.97353000000000
Br9    Br     0.14917000000000     0.00012000000000     0.47353000000000
F10    F      0.41931000000000     0.74918000000000     0.49915000000000
F10    F      0.08069000000000     0.25082000000000     0.99915000000000
F10    F      0.58069000000000     0.24918000000000     0.00085000000000
F10    F      0.91931000000000     0.75082000000000     0.50085000000000
H11    H      0.49687000000000     0.93689000000000     0.48498000000000
H11    H      0.00313000000000     0.06311000000000     0.98498000000000
H11    H      0.50313000000000     0.43689000000000     0.01502000000000
H11    H      0.99687000000000     0.56311000000000     0.51502000000000
H12    H      0.49693000000000     0.56155000000000     0.51727000000000
H12    H      0.00307000000000     0.43845000000000     0.01727000000000
H12    H      0.50307000000000     0.06155000000000     0.98273000000000
H12    H      0.99693000000000     0.93845000000000     0.48273000000000
