data_default
_cell_volume           730.476627
_symmetry_space_group_name_H-M 'P 1'
_symmetry_Int_Tables_number 1
loop_
_symmetry_equiv_pos_site_id
_symmetry_equiv_pos_as_xyz
1 x,y,z
_cell_length_a        11.1270110000
_cell_length_b        17.1434180000
_cell_length_c         3.8293970000
_cell_angle_alpha        90.0000
_cell_angle_beta        90.0000
_cell_angle_gamma        90.0000
_cell_formula_units_Z 1
loop_
_atom_site_label
_atom_site_type_symbol
_atom_site_fract_x
_atom_site_fract_y
_atom_site_fract_z
C1     C      0.15348100000000     0.05522500000000     0.15422900000000
C1     C      0.84651900000000     0.94477500000000     0.65422900000000
C1     C      0.65348100000000     0.44477500000000     0.15422900000000
C1     C      0.34651900000000     0.55522500000000     0.65422900000000
C2     C      0.26275200000000     0.06713300000000     0.98782800000000
C2     C      0.73724800000000     0.93286700000000     0.48782800000000
C2     C      0.76275200000000     0.43286700000000     0.98782800000000
C2     C      0.23724800000000     0.56713300000000     0.48782800000000
C3     C      0.30015700000000     0.14319000000000     0.90717200000000
C3     C      0.69984300000000     0.85681000000000     0.40717200000000
C3     C      0.80015700000000     0.35681000000000     0.90717200000000
C3     C      0.19984300000000     0.64319000000000     0.40717200000000
C4     C      0.22472400000000     0.20575800000000     0.99481500000000
C4     C      0.77527600000000     0.79424200000000     0.49481500000000
C4     C      0.72472400000000     0.29424200000000     0.99481500000000
C4     C      0.27527600000000     0.70575800000000     0.49481500000000
C5     C      0.11557000000000     0.19158500000000     0.15829600000000
C5     C      0.88443000000000     0.80841500000000     0.65829600000000
C5     C      0.61557000000000     0.30841500000000     0.15829600000000
C5     C      0.38443000000000     0.69158500000000     0.65829600000000
C6     C      0.07725100000000     0.11655800000000     0.24269400000000
C6     C      0.92274900000000     0.88344200000000     0.74269400000000
C6     C      0.57725100000000     0.38344200000000     0.24269400000000
C6     C      0.42274900000000     0.61655800000000     0.74269400000000
Br1    Br     0.35785300000000     0.98005500000000     0.87407900000000
Br1    Br     0.64214700000000     0.01994500000000     0.37407900000000
Br1    Br     0.85785300000000     0.51994500000000     0.87407900000000
Br1    Br     0.14214700000000     0.48005500000000     0.37407900000000
Br2    Br     0.26863200000000     0.30933500000000     0.89407500000000
Br2    Br     0.73136800000000     0.69066500000000     0.39407500000000
Br2    Br     0.76863200000000     0.19066500000000     0.89407500000000
Br2    Br     0.23136800000000     0.80933500000000     0.39407500000000
Cl1    Cl     0.43559500000000     0.15967200000000     0.70518800000000
Cl1    Cl     0.56440500000000     0.84032800000000     0.20518800000000
Cl1    Cl     0.93559500000000     0.34032800000000     0.70518800000000
Cl1    Cl     0.06440500000000     0.65967200000000     0.20518800000000
F1     F      0.97222300000000     0.10390500000000     0.40316200000000
F1     F      0.02777700000000     0.89609500000000     0.90316200000000
F1     F      0.47222300000000     0.39609500000000     0.40316200000000
F1     F      0.52777700000000     0.60390500000000     0.90316200000000
H1     H      0.12555500000000     0.99562200000000     0.22064400000000
H1     H      0.87444500000000     0.00437800000000     0.72064400000000
H1     H      0.62555500000000     0.50437800000000     0.22064400000000
H1     H      0.37444500000000     0.49562200000000     0.72064400000000
H2     H      0.05695300000000     0.24081200000000     0.22580400000000
H2     H      0.94304700000000     0.75918800000000     0.72580400000000
H2     H      0.55695300000000     0.25918800000000     0.22580400000000
H2     H      0.44304700000000     0.74081200000000     0.72580400000000
