data_default
_cell_volume           751.796491
_symmetry_space_group_name_H-M 'P 1'
_symmetry_Int_Tables_number 1
loop_
_symmetry_equiv_pos_site_id
_symmetry_equiv_pos_as_xyz
1 x,y,z
_cell_length_a         3.8748496800
_cell_length_b        13.4560983798
_cell_length_c        14.4730190309
_cell_angle_alpha        90.0000
_cell_angle_beta        94.9653
_cell_angle_gamma        90.0000
_cell_formula_units_Z 1
loop_
_atom_site_label
_atom_site_type_symbol
_atom_site_fract_x
_atom_site_fract_y
_atom_site_fract_z
C0_0   C      0.15504263289295     0.67659737763997     0.71794246719475
C0_0   C      0.84495736710705     0.17659737763997     0.78205753280525
C0_0   C      0.84495736710705     0.32340262236003     0.28205753280525
C0_0   C      0.15504263289295     0.82340262236003     0.21794246719475
C1_0   C      0.12438264495771     0.60232397883935     0.78368722418077
C1_0   C      0.87561735504229     0.10232397883935     0.71631277581923
C1_0   C      0.87561735504229     0.39767602116065     0.21631277581923
C1_0   C      0.12438264495771     0.89767602116065     0.28368722418077
C3_0   C      0.30163139461389     0.76942522914949     0.74228299854782
C3_0   C      0.69836860538611     0.26942522914949     0.75771700145218
C3_0   C      0.69836860538611     0.23057477085051     0.25771700145218
C3_0   C      0.30163139461389     0.73057477085051     0.24228299854782
Br6_0  Br     0.98847428717316     0.64831322446089     0.59352981468013
Br6_0  Br     0.01152571282684     0.14831322446089     0.90647018531987
Br6_0  Br     0.01152571282684     0.35168677553911     0.40647018531987
Br6_0  Br     0.98847428717316     0.85168677553911     0.09352981468013
C2_0   C      0.24471282971591     0.62229850868078     0.87477807011525
C2_0   C      0.75528717028409     0.12229850868078     0.62522192988475
C2_0   C      0.75528717028409     0.37770149131922     0.12522192988475
C2_0   C      0.24471282971591     0.87770149131922     0.37477807011525
H10_0  H      0.00936506710375     0.53073623796259     0.76489088732837
H10_0  H      0.99063493289625     0.03073623796259     0.73510911267163
H10_0  H      0.99063493289625     0.46926376203741     0.23510911267163
H10_0  H      0.00936506710375     0.96926376203741     0.26489088732838
C4_0   C      0.41565765141247     0.78592251076765     0.83582801190220
C4_0   C      0.58434234858753     0.28592251076765     0.66417198809780
C4_0   C      0.58434234858753     0.21407748923235     0.16417198809780
C4_0   C      0.41565765141247     0.71407748923235     0.33582801190220
Cl9_0  Cl     0.34080127763287     0.85994673659657     0.65998678250352
Cl9_0  Cl     0.65919872236713     0.35994673659657     0.84001321749648
Cl9_0  Cl     0.65919872236713     0.14005326340343     0.34001321749648
Cl9_0  Cl     0.34080127763287     0.64005326340343     0.15998678250352
C5_0   C      0.39027939207818     0.71269636310131     0.90281854001126
C5_0   C      0.60972060792182     0.21269636310131     0.59718145998874
C5_0   C      0.60972060792182     0.28730363689869     0.09718145998874
C5_0   C      0.39027939207818     0.78730363689869     0.40281854001126
F7_0   F      0.21659807232702     0.55030507051525     0.93949414874877
F7_0   F      0.78340192767298     0.05030507051525     0.56050585125123
F7_0   F      0.78340192767298     0.44969492948475     0.06050585125123
F7_0   F      0.21659807232702     0.94969492948475     0.43949414874877
Br8_0  Br     0.60442069704907     0.91072152108733     0.87457909842491
Br8_0  Br     0.39557930295093     0.41072152108733     0.62542090157509
Br8_0  Br     0.39557930295093     0.08927847891267     0.12542090157509
Br8_0  Br     0.60442069704907     0.58927847891267     0.37457909842491
H11_0  H      0.47844244586281     0.72550092751626     0.97515016362955
H11_0  H      0.52155755413719     0.22550092751626     0.52484983637045
H11_0  H      0.52155755413719     0.27449907248374     0.02484983637045
H11_0  H      0.47844244586281     0.77449907248374     0.47515016362955
