data_default
_cell_volume           770.944898
_symmetry_space_group_name_H-M 'P 1'
_symmetry_Int_Tables_number 1
loop_
_symmetry_equiv_pos_site_id
_symmetry_equiv_pos_as_xyz
1 x,y,z
_cell_length_a        18.6230000000
_cell_length_b        11.5700000000
_cell_length_c         3.5780000000
_cell_angle_alpha        90.0000
_cell_angle_beta        90.0000
_cell_angle_gamma        90.0000
_cell_formula_units_Z 1
loop_
_atom_site_label
_atom_site_type_symbol
_atom_site_fract_x
_atom_site_fract_y
_atom_site_fract_z
C1     C      0.49184000000000     0.25070000000000     0.50420000000000
C1     C      0.00816000000000     0.74930000000000     0.00420000000000
C1     C      0.50816000000000     0.75070000000000     0.99580000000000
C1     C      0.99184000000000     0.24930000000000     0.49580000000000
C2     C      0.52730000000000     0.14616000000000     0.49600000000000
C2     C      0.97270000000000     0.85384000000000     0.99600000000000
C2     C      0.47270000000000     0.64616000000000     0.00400000000000
C2     C      0.02730000000000     0.35384000000000     0.50400000000000
C3     C      0.60148000000000     0.14690000000000     0.47915000000000
C3     C      0.89852000000000     0.85310000000000     0.97915000000000
C3     C      0.39852000000000     0.64690000000000     0.02085000000000
C3     C      0.10148000000000     0.35310000000000     0.52085000000000
C4     C      0.64007000000000     0.25015000000000     0.47053000000000
C4     C      0.85993000000000     0.74985000000000     0.97053000000000
C4     C      0.35993000000000     0.75015000000000     0.02947000000000
C4     C      0.14007000000000     0.24985000000000     0.52947000000000
C5     C      0.60178000000000     0.35368000000000     0.47938000000000
C5     C      0.89822000000000     0.64632000000000     0.97938000000000
C5     C      0.39822000000000     0.85368000000000     0.02062000000000
C5     C      0.10178000000000     0.14632000000000     0.52062000000000
C6     C      0.52760000000000     0.35497000000000     0.49623000000000
C6     C      0.97240000000000     0.64503000000000     0.99623000000000
C6     C      0.47240000000000     0.85497000000000     0.00377000000000
C6     C      0.02760000000000     0.14503000000000     0.50377000000000
Cl7    Cl     0.73156000000000     0.24981000000000     0.44975000000000
Cl7    Cl     0.76844000000000     0.75019000000000     0.94975000000000
Cl7    Cl     0.26844000000000     0.74981000000000     0.05025000000000
Cl7    Cl     0.23156000000000     0.25019000000000     0.55025000000000
Br8    Br     0.65067000000000     0.49591000000000     0.46847000000000
Br8    Br     0.84933000000000     0.50409000000000     0.96847000000000
Br8    Br     0.34933000000000     0.99591000000000     0.03153000000000
Br8    Br     0.15067000000000     0.00409000000000     0.53153000000000
Br9    Br     0.64996000000000     0.00430000000000     0.46795000000000
Br9    Br     0.85004000000000     0.99570000000000     0.96795000000000
Br9    Br     0.35004000000000     0.50430000000000     0.03205000000000
Br9    Br     0.14996000000000     0.49570000000000     0.53205000000000
F10    F      0.42013000000000     0.25097000000000     0.52049000000000
F10    F      0.07987000000000     0.74903000000000     0.02049000000000
F10    F      0.57987000000000     0.75097000000000     0.97951000000000
F10    F      0.92013000000000     0.24903000000000     0.47951000000000
H11    H      0.49811000000000     0.43562000000000     0.50304000000000
H11    H      0.00189000000000     0.56438000000000     0.00304000000000
H11    H      0.50189000000000     0.93562000000000     0.99696000000000
H11    H      0.99811000000000     0.06438000000000     0.49696000000000
H12    H      0.49758000000000     0.06573000000000     0.50264000000000
H12    H      0.00242000000000     0.93427000000000     0.00264000000000
H12    H      0.50242000000000     0.56573000000000     0.99736000000000
H12    H      0.99758000000000     0.43427000000000     0.49736000000000
