data_default
_cell_volume          1515.758042
_symmetry_space_group_name_H-M 'P 1'
_symmetry_Int_Tables_number 1
loop_
_symmetry_equiv_pos_site_id
_symmetry_equiv_pos_as_xyz
1 x,y,z
_cell_length_a        19.8350410058
_cell_length_b        19.8350410058
_cell_length_c         3.8526865411
_cell_angle_alpha        90.0000
_cell_angle_beta        90.0000
_cell_angle_gamma        90.0000
_cell_formula_units_Z 1
loop_
_atom_site_label
_atom_site_type_symbol
_atom_site_fract_x
_atom_site_fract_y
_atom_site_fract_z
C0_0   C      0.19341363316233     0.97732349979989     0.67452272562997
C0_0   C      0.80658636683767     0.02267650020011     0.67452272562997
C0_0   C      0.52267650020011     0.69341363316233     0.17452272562997
C0_0   C      0.47732349979989     0.30658636683767     0.17452272562997
C0_0   C      0.30658636683767     0.52267650020011     0.82547727437003
C0_0   C      0.69341363316233     0.47732349979989     0.82547727437003
C0_0   C      0.97732349979989     0.80658636683767     0.32547727437003
C0_0   C      0.02267650020011     0.19341363316233     0.32547727437003
C1_0   C      0.19224196118341     0.90731739378777     0.64939427806141
C1_0   C      0.80775803881659     0.09268260621223     0.64939427806141
C1_0   C      0.59268260621223     0.69224196118341     0.14939427806141
C1_0   C      0.40731739378777     0.30775803881659     0.14939427806141
C1_0   C      0.30775803881659     0.59268260621223     0.85060572193859
C1_0   C      0.69224196118341     0.40731739378777     0.85060572193859
C1_0   C      0.90731739378777     0.80775803881659     0.35060572193859
C1_0   C      0.09268260621223     0.19224196118341     0.35060572193859
C3_0   C      0.25048805566660     0.01491276779514     0.57844469539272
C3_0   C      0.74951194433340     0.98508723220486     0.57844469539272
C3_0   C      0.48508723220486     0.75048805566660     0.07844469539272
C3_0   C      0.51491276779514     0.24951194433340     0.07844469539272
C3_0   C      0.24951194433340     0.48508723220486     0.92155530460728
C3_0   C      0.75048805566660     0.51491276779514     0.92155530460728
C3_0   C      0.01491276779514     0.74951194433340     0.42155530460728
C3_0   C      0.98508723220486     0.25048805566660     0.42155530460728
Br6_0  Br     0.11495465921331     0.02175485068840     0.84031364337643
Br6_0  Br     0.88504534078669     0.97824514931161     0.84031364337643
Br6_0  Br     0.47824514931161     0.61495465921331     0.34031364337643
Br6_0  Br     0.52175485068839     0.38504534078669     0.34031364337643
Br6_0  Br     0.38504534078669     0.47824514931161     0.65968635662357
Br6_0  Br     0.61495465921331     0.52175485068839     0.65968635662357
Br6_0  Br     0.02175485068840     0.88504534078669     0.15968635662357
Br6_0  Br     0.97824514931161     0.11495465921331     0.15968635662357
C2_0   C      0.24933397965548     0.87531424281288     0.52243481352614
C2_0   C      0.75066602034452     0.12468575718712     0.52243481352614
C2_0   C      0.62468575718712     0.74933397965548     0.02243481352614
C2_0   C      0.37531424281288     0.25066602034452     0.02243481352614
C2_0   C      0.25066602034452     0.62468575718712     0.97756518647386
C2_0   C      0.74933397965548     0.37531424281288     0.97756518647386
C2_0   C      0.87531424281288     0.75066602034452     0.47756518647386
C2_0   C      0.12468575718712     0.24933397965548     0.47756518647386
H10_0  H      0.14817057532983     0.87826672486546     0.72469081024769
H10_0  H      0.85182942467017     0.12173327513454     0.72469081024769
H10_0  H      0.62173327513454     0.64817057532983     0.22469081024769
H10_0  H      0.37826672486546     0.35182942467017     0.22469081024769
H10_0  H      0.35182942467017     0.62173327513454     0.77530918975231
H10_0  H      0.64817057532983     0.37826672486546     0.77530918975231
H10_0  H      0.87826672486546     0.85182942467017     0.27530918975231
H10_0  H      0.12173327513454     0.14817057532983     0.27530918975231
C4_0   C      0.30682435040838     0.97978226164819     0.45173755373275
C4_0   C      0.69317564959162     0.02021773835181     0.45173755373275
C4_0   C      0.52021773835181     0.80682435040838     0.95173755373275
C4_0   C      0.47978226164819     0.19317564959162     0.95173755373275
C4_0   C      0.19317564959162     0.52021773835181     0.04826244626725
C4_0   C      0.80682435040838     0.47978226164819     0.04826244626725
C4_0   C      0.97978226164819     0.69317564959162     0.54826244626725
C4_0   C      0.02021773835181     0.30682435040838     0.54826244626725
Cl9_0  Cl     0.25121323528724     0.10123600643965     0.61489245664042
Cl9_0  Cl     0.74878676471276     0.89876399356035     0.61489245664042
Cl9_0  Cl     0.39876399356035     0.75121323528724     0.11489245664042
Cl9_0  Cl     0.60123600643965     0.24878676471276     0.11489245664042
Cl9_0  Cl     0.24878676471276     0.39876399356035     0.88510754335958
Cl9_0  Cl     0.75121323528724     0.60123600643965     0.88510754335958
Cl9_0  Cl     0.10123600643965     0.74878676471276     0.38510754335958
Cl9_0  Cl     0.89876399356035     0.25121323528724     0.38510754335958
C5_0   C      0.30679076760635     0.90987045237489     0.42112843827734
C5_0   C      0.69320923239365     0.09012954762511     0.42112843827734
C5_0   C      0.59012954762511     0.80679076760635     0.92112843827734
C5_0   C      0.40987045237489     0.19320923239365     0.92112843827734
C5_0   C      0.19320923239365     0.59012954762511     0.07887156172266
C5_0   C      0.80679076760635     0.40987045237489     0.07887156172266
C5_0   C      0.90987045237489     0.69320923239365     0.57887156172266
C5_0   C      0.09012954762511     0.30679076760635     0.57887156172266
F7_0   F      0.24910339049070     0.80701955725271     0.49480194989619
F7_0   F      0.75089660950930     0.19298044274729     0.49480194989619
F7_0   F      0.69298044274729     0.74910339049070     0.99480194989619
F7_0   F      0.30701955725271     0.25089660950930     0.99480194989619
F7_0   F      0.25089660950930     0.69298044274729     0.00519805010381
F7_0   F      0.74910339049070     0.30701955725271     0.00519805010381
F7_0   F      0.80701955725271     0.75089660950930     0.50519805010381
F7_0   F      0.19298044274729     0.24910339049070     0.50519805010381
Br8_0  Br     0.38614052387556     0.02644407373471     0.31927906483610
Br8_0  Br     0.61385947612444     0.97355592626529     0.31927906483610
Br8_0  Br     0.47355592626530     0.88614052387556     0.81927906483610
Br8_0  Br     0.52644407373471     0.11385947612444     0.81927906483610
Br8_0  Br     0.11385947612444     0.47355592626530     0.18072093516390
Br8_0  Br     0.88614052387556     0.52644407373471     0.18072093516390
Br8_0  Br     0.02644407373471     0.61385947612444     0.68072093516390
Br8_0  Br     0.97355592626529     0.38614052387556     0.68072093516390
H11_0  H      0.35026488915781     0.88276693146258     0.32132938339526
H11_0  H      0.64973511084219     0.11723306853742     0.32132938339526
H11_0  H      0.61723306853742     0.85026488915781     0.82132938339526
H11_0  H      0.38276693146258     0.14973511084219     0.82132938339526
H11_0  H      0.14973511084219     0.61723306853742     0.17867061660474
H11_0  H      0.85026488915781     0.38276693146258     0.17867061660474
H11_0  H      0.88276693146258     0.64973511084219     0.67867061660474
H11_0  H      0.11723306853742     0.35026488915781     0.67867061660474
