data_default
_cell_volume           805.170362
_symmetry_space_group_name_H-M 'P 1'
_symmetry_Int_Tables_number 1
loop_
_symmetry_equiv_pos_site_id
_symmetry_equiv_pos_as_xyz
1 x,y,z
_cell_length_a         7.8058000000
_cell_length_b         8.0946000000
_cell_length_c        13.5105000000
_cell_angle_alpha        90.0000
_cell_angle_beta       109.4040
_cell_angle_gamma        90.0000
_cell_formula_units_Z 1
loop_
_atom_site_label
_atom_site_type_symbol
_atom_site_fract_x
_atom_site_fract_y
_atom_site_fract_z
Br8    Br     0.41854000000000     0.42624000000000     0.21451000000000
Br8    Br     0.58146000000000     0.92624000000000     0.28549000000000
Br8    Br     0.58146000000000     0.57376000000000     0.78549000000000
Br8    Br     0.41854000000000     0.07376000000000     0.71451000000000
Br12   Br     0.68224000000000     0.19392000000000     0.03317000000000
Br12   Br     0.31776000000000     0.69392000000000     0.46683000000000
Br12   Br     0.31776000000000     0.80608000000000     0.96683000000000
Br12   Br     0.68224000000000     0.30608000000000     0.53317000000000
Cl7    Cl     0.12176000000000     0.12958000000000     0.12372000000000
Cl7    Cl     0.87824000000000     0.62958000000000     0.37628000000000
Cl7    Cl     0.87824000000000     0.87042000000000     0.87628000000000
Cl7    Cl     0.12176000000000     0.37042000000000     0.62372000000000
F10    F      0.85409000000000     0.80651000000000     0.12416000000000
F10    F      0.14591000000000     0.30651000000000     0.37584000000000
F10    F      0.14591000000000     0.19349000000000     0.87584000000000
F10    F      0.85409000000000     0.69349000000000     0.62416000000000
C1     C      0.04247000000000     0.33010000000000     0.12385000000000
C1     C      0.95753000000000     0.83010000000000     0.37615000000000
C1     C      0.95753000000000     0.66990000000000     0.87615000000000
C1     C      0.04247000000000     0.16990000000000     0.62385000000000
C2     C      0.16368000000000     0.46183000000000     0.16186000000000
C2     C      0.83632000000000     0.96183000000000     0.33814000000000
C2     C      0.83632000000000     0.53817000000000     0.83814000000000
C2     C      0.16368000000000     0.03817000000000     0.66186000000000
C3     C      0.10120000000000     0.62299000000000     0.16224000000000
C3     C      0.89880000000000     0.12299000000000     0.33776000000000
C3     C      0.89880000000000     0.37701000000000     0.83776000000000
C3     C      0.10120000000000     0.87701000000000     0.66224000000000
C4     C      0.91541000000000     0.65144000000000     0.12406000000000
C4     C      0.08459000000000     0.15144000000000     0.37594000000000
C4     C      0.08459000000000     0.34856000000000     0.87594000000000
C4     C      0.91541000000000     0.84856000000000     0.62406000000000
C5     C      0.79083000000000     0.52506000000000     0.08580000000000
C5     C      0.20917000000000     0.02506000000000     0.41420000000000
C5     C      0.20917000000000     0.47494000000000     0.91420000000000
C5     C      0.79083000000000     0.97494000000000     0.58580000000000
C6     C      0.85553000000000     0.36460000000000     0.08596000000000
C6     C      0.14447000000000     0.86460000000000     0.41404000000000
C6     C      0.14447000000000     0.63540000000000     0.91404000000000
C6     C      0.85553000000000     0.13540000000000     0.58596000000000
H9     H      0.19493000000000     0.72430000000000     0.19157000000000
H9     H      0.80507000000000     0.22430000000000     0.30843000000000
H9     H      0.80507000000000     0.27570000000000     0.80843000000000
H9     H      0.19493000000000     0.77570000000000     0.69157000000000
H11    H      0.64667000000000     0.55131000000000     0.05654000000000
H11    H      0.35333000000000     0.05131000000000     0.44346000000000
H11    H      0.35333000000000     0.44869000000000     0.94346000000000
H11    H      0.64667000000000     0.94869000000000     0.55654000000000
