data_default
_cell_volume           378.482604
_symmetry_space_group_name_H-M 'P 1'
_symmetry_Int_Tables_number 1
loop_
_symmetry_equiv_pos_site_id
_symmetry_equiv_pos_as_xyz
1 x,y,z
_cell_length_a         9.3270000000
_cell_length_b        11.4590000000
_cell_length_c         3.5420000000
_cell_angle_alpha        90.0000
_cell_angle_beta        91.1750
_cell_angle_gamma        90.0000
_cell_formula_units_Z 1
loop_
_atom_site_label
_atom_site_type_symbol
_atom_site_fract_x
_atom_site_fract_y
_atom_site_fract_z
C1     C      0.47964000000000     0.09293000000000     0.23326000000000
C1     C      0.52036000000000     0.59293000000000     0.76674000000000
C2     C      0.55110000000000     0.98765000000000     0.23051000000000
C2     C      0.44890000000000     0.48765000000000     0.76949000000000
C3     C      0.69939000000000     0.98893000000000     0.23875000000000
C3     C      0.30061000000000     0.48893000000000     0.76125000000000
C4     C      0.77595000000000     0.09344000000000     0.24960000000000
C4     C      0.22405000000000     0.59344000000000     0.75040000000000
C5     C      0.69885000000000     0.19769000000000     0.25197000000000
C5     C      0.30115000000000     0.69769000000000     0.74803000000000
C6     C      0.55055000000000     0.19846000000000     0.24386000000000
C6     C      0.44945000000000     0.69846000000000     0.75614000000000
Cl7    Cl     0.95883000000000     0.09375000000000     0.25969000000000
Cl7    Cl     0.04117000000000     0.59375000000000     0.74031000000000
Br8    Br     0.79578000000000     0.34162000000000     0.26644000000000
Br8    Br     0.20422000000000     0.84162000000000     0.73356000000000
Br9    Br     0.79706000000000     0.84532000000000     0.23502000000000
Br9    Br     0.20294000000000     0.34532000000000     0.76498000000000
F10    F      0.33632000000000     0.09269000000000     0.22536000000000
F10    F      0.66368000000000     0.59269000000000     0.77464000000000
H11    H      0.49117000000000     0.27966000000000     0.24574000000000
H11    H      0.50883000000000     0.77966000000000     0.75426000000000
H12    H      0.49214000000000     0.90624000000000     0.22210000000000
H12    H      0.50786000000000     0.40624000000000     0.77790000000000
