data_default
_cell_volume           773.460761
_symmetry_space_group_name_H-M 'P 1'
_symmetry_Int_Tables_number 1
loop_
_symmetry_equiv_pos_site_id
_symmetry_equiv_pos_as_xyz
1 x,y,z
_cell_length_a         3.9515000000
_cell_length_b        14.0336000000
_cell_length_c        14.7521000000
_cell_angle_alpha        90.0000
_cell_angle_beta       109.0064
_cell_angle_gamma        90.0000
_cell_formula_units_Z 1
loop_
_atom_site_type_symbol
_atom_site_fract_x
_atom_site_fract_y
_atom_site_fract_z
C      0.97910300000000     0.22893600000000     0.25463900000000
C      0.52089700000000     0.72893600000000     0.24536100000000
C      0.02089700000000     0.77106400000000     0.74536100000000
C      0.47910300000000     0.27106400000000     0.75463900000000
C      0.87037600000000     0.37586100000000     0.12092200000000
C      0.62962400000000     0.87586100000000     0.37907800000000
C      0.12962400000000     0.62413900000000     0.87907800000000
C      0.37037600000000     0.12413900000000     0.62092200000000
C      0.01786000000000     0.21330800000000     0.16434800000000
C      0.48214000000000     0.71330800000000     0.33565200000000
C      0.98214000000000     0.78669200000000     0.83565200000000
C      0.51786000000000     0.28669200000000     0.66434800000000
C      0.96401000000000     0.28637000000000     0.09700900000000
C      0.53599000000000     0.78637000000000     0.40299100000000
C      0.03599000000000     0.71363000000000     0.90299100000000
C      0.46401000000000     0.21363000000000     0.59700900000000
C      0.88382300000000     0.32096900000000     0.27540300000000
C      0.61617700000000     0.82096900000000     0.22459700000000
C      0.11617700000000     0.67903100000000     0.72459700000000
C      0.38382300000000     0.17903100000000     0.77540300000000
C      0.82889600000000     0.39490500000000     0.20895900000000
C      0.67110400000000     0.89490500000000     0.29104100000000
C      0.17110400000000     0.60509500000000     0.79104100000000
C      0.32889600000000     0.10509500000000     0.70895900000000
F      0.81771300000000     0.44703600000000     0.05614810000000
F      0.68228700000000     0.94703600000000     0.44385190000000
F      0.18228700000000     0.55296400000000     0.94385190000000
F      0.31771300000000     0.05296400000000     0.55614810000000
Cl     0.04624000000000     0.13823800000000     0.33719200000000
Cl     0.45376000000000     0.63823800000000     0.16280800000000
Cl     0.95376000000000     0.86176200000000     0.66280800000000
Cl     0.54624000000000     0.36176200000000     0.83719200000000
H      0.99401200000000     0.27417200000000     0.02746230000000
H      0.50598800000000     0.77417200000000     0.47253770000000
H      0.00598800000000     0.72582800000000     0.97253770000000
H      0.49401200000000     0.22582800000000     0.52746230000000
H      0.75546600000000     0.46577900000000     0.22509200000000
H      0.74453400000000     0.96577900000000     0.27490800000000
H      0.24453400000000     0.53422100000000     0.77490800000000
H      0.25546600000000     0.03422100000000     0.72509200000000
Br     0.14552000000000     0.09192280000000     0.12931400000000
Br     0.35448000000000     0.59192280000000     0.37068600000000
Br     0.85448000000000     0.90807720000000     0.87068600000000
Br     0.64552000000000     0.40807720000000     0.62931400000000
Br     0.82489100000000     0.34947500000000     0.39495900000000
Br     0.67510900000000     0.84947500000000     0.10504100000000
Br     0.17510900000000     0.65052500000000     0.60504100000000
Br     0.32489100000000     0.15052500000000     0.89495900000000
