data_default
_cell_volume           758.053961
_symmetry_space_group_name_H-M 'P 1'
_symmetry_Int_Tables_number 1
loop_
_symmetry_equiv_pos_site_id
_symmetry_equiv_pos_as_xyz
1 x,y,z
_cell_length_a         6.8750000000
_cell_length_b         3.8380000000
_cell_length_c        29.5780000000
_cell_angle_alpha        90.0000
_cell_angle_beta        76.2400
_cell_angle_gamma        90.0000
_cell_formula_units_Z 1
loop_
_atom_site_label
_atom_site_type_symbol
_atom_site_fract_x
_atom_site_fract_y
_atom_site_fract_z
C1     C      0.19160000000000     0.24890000000000     0.83440000000000
C1     C      0.80840000000000     0.75110000000000     0.16560000000000
C1     C      0.80840000000000     0.74890000000000     0.66560000000000
C1     C      0.19160000000000     0.25110000000000     0.33440000000000
C2     C      0.34970000000000     0.10290000000000     0.85010000000000
C2     C      0.65030000000000     0.89710000000000     0.14990000000000
C2     C      0.65030000000000     0.60290000000000     0.64990000000000
C2     C      0.34970000000000     0.39710000000000     0.35010000000000
C3     C      0.32450000000000     0.05110000000000     0.89760000000000
C3     C      0.67550000000000     0.94890000000000     0.10240000000000
C3     C      0.67550000000000     0.55110000000000     0.60240000000000
C3     C      0.32450000000000     0.44890000000000     0.39760000000000
C4     C      0.14920000000000     0.13790000000000     0.92980000000000
C4     C      0.85080000000000     0.86210000000000     0.07020000000000
C4     C      0.85080000000000     0.63790000000000     0.57020000000000
C4     C      0.14920000000000     0.36210000000000     0.42980000000000
C5     C      0.99250000000000     0.28350000000000     0.91350000000000
C5     C      0.00750000000000     0.71650000000000     0.08650000000000
C5     C      0.00750000000000     0.78350000000000     0.58650000000000
C5     C      0.99250000000000     0.21650000000000     0.41350000000000
C6     C      0.01110000000000     0.34140000000000     0.86570000000000
C6     C      0.98890000000000     0.65860000000000     0.13430000000000
C6     C      0.98890000000000     0.84140000000000     0.63430000000000
C6     C      0.01110000000000     0.15860000000000     0.36570000000000
H7     H      0.48850000000000     0.03190000000000     0.82610000000000
H7     H      0.51150000000000     0.96810000000000     0.17390000000000
H7     H      0.51150000000000     0.53190000000000     0.67390000000000
H7     H      0.48850000000000     0.46810000000000     0.32610000000000
H8     H      0.13510000000000     0.09360000000000     0.96650000000000
H8     H      0.86490000000000     0.90640000000000     0.03350000000000
H8     H      0.86490000000000     0.59360000000000     0.53350000000000
H8     H      0.13510000000000     0.40640000000000     0.46650000000000
Cl9    Cl     0.81700000000000     0.52110000000000     0.84600000000000
Cl9    Cl     0.18300000000000     0.47890000000000     0.15400000000000
Cl9    Cl     0.18300000000000     0.02110000000000     0.65400000000000
Cl9    Cl     0.81700000000000     0.97890000000000     0.34600000000000
F10    F      0.47770000000000     0.90900000000000     0.91320000000000
F10    F      0.52230000000000     0.09100000000000     0.08680000000000
F10    F      0.52230000000000     0.40900000000000     0.58680000000000
F10    F      0.47770000000000     0.59100000000000     0.41320000000000
Br11   Br     0.75550000000000     0.40040000000000     0.95790000000000
Br11   Br     0.24450000000000     0.59960000000000     0.04210000000000
Br11   Br     0.24450000000000     0.90040000000000     0.54210000000000
Br11   Br     0.75550000000000     0.09960000000000     0.45790000000000
Br12   Br     0.22870000000000     0.31780000000000     0.76970000000000
Br12   Br     0.77130000000000     0.68220000000000     0.23030000000000
Br12   Br     0.77130000000000     0.81780000000000     0.73030000000000
Br12   Br     0.22870000000000     0.18220000000000     0.26970000000000
