data_default
_cell_volume           807.468809
_symmetry_space_group_name_H-M 'P 1'
_symmetry_Int_Tables_number 1
loop_
_symmetry_equiv_pos_site_id
_symmetry_equiv_pos_as_xyz
1 x,y,z
_cell_length_a         4.0951000000
_cell_length_b        18.3566000000
_cell_length_c        10.7424000000
_cell_angle_alpha        90.0000
_cell_angle_beta        90.6990
_cell_angle_gamma        90.0000
_cell_formula_units_Z 1
loop_
_atom_site_label
_atom_site_type_symbol
_atom_site_fract_x
_atom_site_fract_y
_atom_site_fract_z
Br8    Br     0.26515000000000     0.51677000000000     0.15981000000000
Br8    Br     0.73485000000000     0.01677000000000     0.34019000000000
Br8    Br     0.73485000000000     0.48323000000000     0.84019000000000
Br8    Br     0.26515000000000     0.98323000000000     0.65981000000000
Br12   Br     0.32909000000000     0.20756000000000     0.24983000000000
Br12   Br     0.67091000000000     0.70756000000000     0.25017000000000
Br12   Br     0.67091000000000     0.79244000000000     0.75017000000000
Br12   Br     0.32909000000000     0.29244000000000     0.74983000000000
Cl7    Cl     0.08795000000000     0.34815000000000     0.08442000000000
Cl7    Cl     0.91205000000000     0.84815000000000     0.41558000000000
Cl7    Cl     0.91205000000000     0.65185000000000     0.91558000000000
Cl7    Cl     0.08795000000000     0.15185000000000     0.58442000000000
F10    F      0.87240000000000     0.40073000000000     0.53596000000000
F10    F      0.12760000000000     0.90073000000000     0.96404000000000
F10    F      0.12760000000000     0.59927000000000     0.46404000000000
F10    F      0.87240000000000     0.09927000000000     0.03596000000000
C1     C      0.32032000000000     0.36372000000000     0.21817000000000
C1     C      0.67968000000000     0.86372000000000     0.28183000000000
C1     C      0.67968000000000     0.63628000000000     0.78183000000000
C1     C      0.32032000000000     0.13628000000000     0.71817000000000
C2     C      0.40325000000000     0.43488000000000     0.25477000000000
C2     C      0.59675000000000     0.93488000000000     0.24523000000000
C2     C      0.59675000000000     0.56512000000000     0.74523000000000
C2     C      0.40325000000000     0.06512000000000     0.75477000000000
C3     C      0.58950000000000     0.44783000000000     0.36190000000000
C3     C      0.41050000000000     0.94783000000000     0.13810000000000
C3     C      0.41050000000000     0.55217000000000     0.63810000000000
C3     C      0.58950000000000     0.05217000000000     0.86190000000000
C4     C      0.69269000000000     0.38868000000000     0.43252000000000
C4     C      0.30731000000000     0.88868000000000     0.06748000000000
C4     C      0.30731000000000     0.61132000000000     0.56748000000000
C4     C      0.69269000000000     0.11132000000000     0.93252000000000
C5     C      0.61646000000000     0.31749000000000     0.39985000000000
C5     C      0.38354000000000     0.81749000000000     0.10015000000000
C5     C      0.38354000000000     0.68251000000000     0.60015000000000
C5     C      0.61646000000000     0.18251000000000     0.89985000000000
C6     C      0.43001000000000     0.30547000000000     0.29245000000000
C6     C      0.56999000000000     0.80547000000000     0.20755000000000
C6     C      0.56999000000000     0.69453000000000     0.70755000000000
C6     C      0.43001000000000     0.19453000000000     0.79245000000000
H9     H      0.65309000000000     0.50274000000000     0.38990000000000
H9     H      0.34691000000000     0.00274000000000     0.11010000000000
H9     H      0.34691000000000     0.49726000000000     0.61010000000000
H9     H      0.65309000000000     0.99726000000000     0.88990000000000
H11    H      0.70070000000000     0.27250000000000     0.45694000000000
H11    H      0.29930000000000     0.77250000000000     0.04306000000000
H11    H      0.29930000000000     0.72750000000000     0.54306000000000
H11    H      0.70070000000000     0.22750000000000     0.95694000000000
