data_default
_cell_volume           421.383064
_symmetry_space_group_name_H-M 'P 1'
_symmetry_Int_Tables_number 1
loop_
_symmetry_equiv_pos_site_id
_symmetry_equiv_pos_as_xyz
1 x,y,z
_cell_length_a         4.2034000000
_cell_length_b        12.2547000000
_cell_length_c         8.3817000000
_cell_angle_alpha        90.0000
_cell_angle_beta       102.5830
_cell_angle_gamma        90.0000
_cell_formula_units_Z 1
loop_
_atom_site_label
_atom_site_type_symbol
_atom_site_fract_x
_atom_site_fract_y
_atom_site_fract_z
C4     C      0.12370000000000     0.50260000000000     0.80823000000000
C4     C      0.87630000000000     0.00260000000000     0.69177000000000
C4     C      0.87630000000000     0.49740000000000     0.19177000000000
C4     C      0.12370000000000     0.99740000000000     0.30823000000000
C8     C      0.75635000000000     0.38337000000000     0.64638000000000
C8     C      0.24365000000000     0.88337000000000     0.85362000000000
C8     C      0.24365000000000     0.61663000000000     0.35362000000000
C8     C      0.75635000000000     0.11663000000000     0.14638000000000
N12    N      0.19808000000000     0.39955000000000     0.86693000000000
N12    N      0.80192000000000     0.89955000000000     0.63307000000000
N12    N      0.80192000000000     0.60045000000000     0.13307000000000
N12    N      0.19808000000000     0.10045000000000     0.36693000000000
N16    N      0.85471000000000     0.49024000000000     0.67443000000000
N16    N      0.14529000000000     0.99024000000000     0.82557000000000
N16    N      0.14529000000000     0.50976000000000     0.32557000000000
N16    N      0.85471000000000     0.00976000000000     0.17443000000000
C20    C      0.98614000000000     0.31649000000000     0.77647000000000
C20    C      0.01386000000000     0.81649000000000     0.72353000000000
C20    C      0.01386000000000     0.68351000000000     0.22353000000000
C20    C      0.98614000000000     0.18351000000000     0.27647000000000
O24    O      0.25537000000000     0.58928000000000     0.85728000000000
O24    O      0.74463000000000     0.08928000000000     0.64272000000000
O24    O      0.74463000000000     0.41072000000000     0.14272000000000
O24    O      0.25537000000000     0.91072000000000     0.35728000000000
O28    O      0.53186000000000     0.34923000000000     0.53959000000000
O28    O      0.46814000000000     0.84923000000000     0.96041000000000
O28    O      0.46814000000000     0.65077000000000     0.46041000000000
O28    O      0.53186000000000     0.15077000000000     0.03959000000000
H32    H      0.36571000000000     0.38677000000000     0.95449000000000
H32    H      0.63429000000000     0.88677000000000     0.54551000000000
H32    H      0.63429000000000     0.61323000000000     0.04551000000000
H32    H      0.36571000000000     0.11323000000000     0.45449000000000
H36    H      0.10643000000000     0.26232000000000     0.72290000000000
H36    H      0.89357000000000     0.76232000000000     0.77710000000000
H36    H      0.89357000000000     0.73768000000000     0.27710000000000
H36    H      0.10643000000000     0.23768000000000     0.22290000000000
H40    H      0.85825000000000     0.27659000000000     0.84537000000000
H40    H      0.14175000000000     0.77659000000000     0.65463000000000
H40    H      0.14175000000000     0.72341000000000     0.15463000000000
H40    H      0.85825000000000     0.22341000000000     0.34537000000000
H44    H      0.75864000000000     0.54843000000000     0.61389000000000
H44    H      0.24136000000000     0.04843000000000     0.88611000000000
H44    H      0.24136000000000     0.45157000000000     0.38611000000000
H44    H      0.75864000000000     0.95157000000000     0.11389000000000
