data_default
_cell_volume           408.062187
_symmetry_space_group_name_H-M 'P 1'
_symmetry_Int_Tables_number 1
loop_
_symmetry_equiv_pos_site_id
_symmetry_equiv_pos_as_xyz
1 x,y,z
_cell_length_a        10.7740000000
_cell_length_b         6.3040000000
_cell_length_c        12.1370000000
_cell_angle_alpha        90.0000
_cell_angle_beta       150.3290
_cell_angle_gamma        90.0000
_cell_formula_units_Z 1
loop_
_atom_site_label
_atom_site_type_symbol
_atom_site_fract_x
_atom_site_fract_y
_atom_site_fract_z
N1     N      0.70546000000000     0.05549000000000     0.81034000000000
N1     N      0.29454000000000     0.55549000000000     0.68966000000000
N1     N      0.29454000000000     0.94451000000000     0.18966000000000
N1     N      0.70546000000000     0.44451000000000     0.31034000000000
C2     C      0.82202000000000     0.13284000000000     0.98663000000000
C2     C      0.17798000000000     0.63284000000000     0.51337000000000
C2     C      0.17798000000000     0.86716000000000     0.01337000000000
C2     C      0.82202000000000     0.36716000000000     0.48663000000000
N3     N      0.82134000000000     0.33840000000000     0.98413000000000
N3     N      0.17866000000000     0.83840000000000     0.51587000000000
N3     N      0.17866000000000     0.66160000000000     0.01587000000000
N3     N      0.82134000000000     0.16160000000000     0.48413000000000
C4     C      0.70414000000000     0.40526000000000     0.80532000000000
C4     C      0.29586000000000     0.90526000000000     0.69468000000000
C4     C      0.29586000000000     0.59474000000000     0.19468000000000
C4     C      0.70414000000000     0.09474000000000     0.30532000000000
C5     C      0.61397000000000     0.22389000000000     0.67136000000000
C5     C      0.38603000000000     0.72389000000000     0.82864000000000
C5     C      0.38603000000000     0.77611000000000     0.32864000000000
C5     C      0.61397000000000     0.27611000000000     0.17136000000000
O6     O      0.68333000000000     0.59849000000000     0.76925000000000
O6     O      0.31667000000000     0.09849000000000     0.73075000000000
O6     O      0.31667000000000     0.40151000000000     0.23075000000000
O6     O      0.68333000000000     0.90151000000000     0.26925000000000
O7     O      0.92010000000000     0.02697000000000     0.13615000000000
O7     O      0.07990000000000     0.52697000000000     0.36385000000000
O7     O      0.07990000000000     0.97303000000000     0.86385000000000
O7     O      0.92010000000000     0.47303000000000     0.63615000000000
H8     H      0.69311000000000     0.90392000000000     0.79061000000000
H8     H      0.30689000000000     0.40392000000000     0.70939000000000
H8     H      0.30689000000000     0.09608000000000     0.20939000000000
H8     H      0.69311000000000     0.59608000000000     0.29061000000000
H9     H      0.89843000000000     0.42166000000000     0.09885000000000
H9     H      0.10157000000000     0.92166000000000     0.40115000000000
H9     H      0.10157000000000     0.57834000000000     0.90115000000000
H9     H      0.89843000000000     0.07834000000000     0.59885000000000
H10    H      0.69933000000000     0.22517000000000     0.65546000000000
H10    H      0.30067000000000     0.72517000000000     0.84454000000000
H10    H      0.30067000000000     0.77483000000000     0.34454000000000
H10    H      0.69933000000000     0.27483000000000     0.15546000000000
H11    H      0.40970000000000     0.22733000000000     0.50848000000000
H11    H      0.59030000000000     0.72733000000000     0.99152000000000
H11    H      0.59030000000000     0.77267000000000     0.49152000000000
H11    H      0.40970000000000     0.27267000000000     0.00848000000000
