data_default
_cell_volume           412.117581
_symmetry_space_group_name_H-M 'P 1'
_symmetry_Int_Tables_number 1
loop_
_symmetry_equiv_pos_site_id
_symmetry_equiv_pos_as_xyz
1 x,y,z
_cell_length_a         6.2820000000
_cell_length_b         6.2820000000
_cell_length_c        10.4430000000
_cell_angle_alpha        90.0000
_cell_angle_beta        90.0000
_cell_angle_gamma        90.0000
_cell_formula_units_Z 1
loop_
_atom_site_label
_atom_site_type_symbol
_atom_site_fract_x
_atom_site_fract_y
_atom_site_fract_z
N1     N      0.06465000000000     0.25000000000000     0.03907000000000
N1     N      0.43535000000000     0.75000000000000     0.53907000000000
N1     N      0.93535000000000     0.75000000000000     0.96093000000000
N1     N      0.56465000000000     0.25000000000000     0.46093000000000
C2     C      0.14199000000000     0.25000000000000     0.92228000000000
C2     C      0.35801000000000     0.75000000000000     0.42228000000000
C2     C      0.85801000000000     0.75000000000000     0.07772000000000
C2     C      0.64199000000000     0.25000000000000     0.57772000000000
N3     N      0.34819000000000     0.25000000000000     0.92440000000000
N3     N      0.15181000000000     0.75000000000000     0.42440000000000
N3     N      0.65181000000000     0.75000000000000     0.07560000000000
N3     N      0.84819000000000     0.25000000000000     0.57560000000000
C4     C      0.41538000000000     0.25000000000000     0.04325000000000
C4     C      0.08462000000000     0.75000000000000     0.54325000000000
C4     C      0.58462000000000     0.75000000000000     0.95675000000000
C4     C      0.91538000000000     0.25000000000000     0.45675000000000
C5     C      0.23369000000000     0.25000000000000     0.13133000000000
C5     C      0.26631000000000     0.75000000000000     0.63133000000000
C5     C      0.76631000000000     0.75000000000000     0.86867000000000
C5     C      0.73369000000000     0.25000000000000     0.36867000000000
O6     O      0.60941000000000     0.25000000000000     0.06844000000000
O6     O      0.89059000000000     0.75000000000000     0.56844000000000
O6     O      0.39059000000000     0.75000000000000     0.93156000000000
O6     O      0.10941000000000     0.25000000000000     0.43156000000000
O7     O      0.03678000000000     0.25000000000000     0.82252000000000
O7     O      0.46322000000000     0.75000000000000     0.32252000000000
O7     O      0.96322000000000     0.75000000000000     0.17748000000000
O7     O      0.53678000000000     0.25000000000000     0.67748000000000
H8     H      0.91259000000000     0.25000000000000     0.05261000000000
H8     H      0.58741000000000     0.75000000000000     0.55261000000000
H8     H      0.08741000000000     0.75000000000000     0.94739000000000
H8     H      0.41259000000000     0.25000000000000     0.44739000000000
H9     H      0.43131000000000     0.25000000000000     0.84895000000000
H9     H      0.06869000000000     0.75000000000000     0.34895000000000
H9     H      0.56869000000000     0.75000000000000     0.15105000000000
H9     H      0.93131000000000     0.25000000000000     0.65105000000000
H10    H      0.23615000000000     0.39549000000000     0.19036000000000
H10    H      0.26385000000000     0.60451000000000     0.69036000000000
H10    H      0.76385000000000     0.89549000000000     0.80964000000000
H10    H      0.73615000000000     0.10451000000000     0.30964000000000
H10    H      0.76385000000000     0.60451000000000     0.80964000000000
H10    H      0.73615000000000     0.39549000000000     0.30964000000000
H10    H      0.23615000000000     0.10451000000000     0.19036000000000
H10    H      0.26385000000000     0.89549000000000     0.69036000000000
