data_default
_cell_volume           212.730145
_symmetry_space_group_name_H-M 'P 1'
_symmetry_Int_Tables_number 1
loop_
_symmetry_equiv_pos_site_id
_symmetry_equiv_pos_as_xyz
1 x,y,z
_cell_length_a        16.2261500000
_cell_length_b         6.4131700000
_cell_length_c         8.3666700000
_cell_angle_alpha        90.0000
_cell_angle_beta        14.1426
_cell_angle_gamma        90.0000
_cell_formula_units_Z 1
loop_
_atom_site_label
_atom_site_type_symbol
_atom_site_fract_x
_atom_site_fract_y
_atom_site_fract_z
O1     O      0.49851000000000     0.52583000000000     0.48529000000000
O1     O      0.50149000000000     0.02583000000000     0.51471000000000
C2     C      0.24616000000000     0.52013000000000     0.87064000000000
C2     C      0.75384000000000     0.02013000000000     0.12936000000000
N3     N      0.12860000000000     0.33735000000000     0.05210000000000
N3     N      0.87140000000000     0.83735000000000     0.94790000000000
C4     C      0.87351000000000     0.36251000000000     0.43691000000000
C4     C      0.12649000000000     0.86251000000000     0.56309000000000
O5     O      0.70455000000000     0.21734000000000     0.70026000000000
O5     O      0.29545000000000     0.71734000000000     0.29974000000000
N6     N      0.81383000000000     0.56124000000000     0.52252000000000
N6     N      0.18617000000000     0.06124000000000     0.47748000000000
C7     C      0.04921000000000     0.68778000000000     0.16509000000000
C7     C      0.95079000000000     0.18778000000000     0.83491000000000
H8     H      0.92650000000000     0.78572000000000     0.48511000000000
H8     H      0.07350000000000     0.28572000000000     0.51489000000000
H9     H      0.20638000000000     0.78138000000000     0.79018000000000
H9     H      0.79362000000000     0.28138000000000     0.20982000000000
H10    H      0.63414000000000     0.60662000000000     0.79081000000000
H10    H      0.36586000000000     0.10662000000000     0.20919000000000
H11    H      0.21957000000000     0.20978000000000     0.91683000000000
H11    H      0.78043000000000     0.70978000000000     0.08317000000000
