data_default
_cell_volume           224.832774
_symmetry_space_group_name_H-M 'P 1'
_symmetry_Int_Tables_number 1
loop_
_symmetry_equiv_pos_site_id
_symmetry_equiv_pos_as_xyz
1 x,y,z
_cell_length_a         6.0737000000
_cell_length_b         3.8267000000
_cell_length_c         9.6873000000
_cell_angle_alpha        90.0000
_cell_angle_beta        93.0630
_cell_angle_gamma        90.0000
_cell_formula_units_Z 1
loop_
_atom_site_label
_atom_site_type_symbol
_atom_site_fract_x
_atom_site_fract_y
_atom_site_fract_z
O10    O      0.32603000000000     0.68315000000000     0.11688000000000
O10    O      0.67397000000000     0.18315000000000     0.88312000000000
O11    O      0.78082000000000     0.22929000000000     0.46959000000000
O11    O      0.21918000000000     0.72929000000000     0.53041000000000
N8     N      0.70880000000000     0.66504000000000     0.15113000000000
N8     N      0.29120000000000     0.16504000000000     0.84887000000000
N9     N      0.50809000000000     0.43720000000000     0.31287000000000
N9     N      0.49191000000000     0.93720000000000     0.68713000000000
C1     C      0.72128000000000     0.36988000000000     0.36200000000000
C1     C      0.27872000000000     0.86988000000000     0.63800000000000
C2     C      0.49408000000000     0.60681000000000     0.18310000000000
C2     C      0.50592000000000     0.10681000000000     0.81690000000000
C3     C      0.86807000000000     0.51117000000000     0.25017000000000
C3     C      0.13193000000000     0.01117000000000     0.74983000000000
H4     H      0.37244000000000     0.37337000000000     0.36345000000000
H4     H      0.62756000000000     0.87337000000000     0.63655000000000
H5     H      0.74215000000000     0.74316000000000     0.05503000000000
H5     H      0.25785000000000     0.24316000000000     0.94497000000000
H6     H      0.98539000000000     0.70189000000000     0.29575000000000
H6     H      0.01461000000000     0.20189000000000     0.70425000000000
H7     H      0.96173000000000     0.29508000000000     0.20731000000000
H7     H      0.03827000000000     0.79508000000000     0.79269000000000
