data_default
_cell_volume           218.672404
_symmetry_space_group_name_H-M 'P 1'
_symmetry_Int_Tables_number 1
loop_
_symmetry_equiv_pos_site_id
_symmetry_equiv_pos_as_xyz
1 x,y,z
_cell_length_a         3.8640000000
_cell_length_b         6.0844000000
_cell_length_c         9.3292000000
_cell_angle_alpha        90.0000
_cell_angle_beta        94.4400
_cell_angle_gamma        90.0000
_cell_formula_units_Z 1
loop_
_atom_site_label
_atom_site_type_symbol
_atom_site_fract_x
_atom_site_fract_y
_atom_site_fract_z
O10    O      0.25657000000000     0.28801000000000     0.12292000000000
O10    O      0.74343000000000     0.78801000000000     0.87708000000000
O11    O      0.85315000000000     0.86563000000000     0.47112000000000
O11    O      0.14685000000000     0.36563000000000     0.52888000000000
N8     N      0.35527000000000     0.91059000000000     0.14098000000000
N8     N      0.64473000000000     0.41059000000000     0.85902000000000
N9     N      0.58508000000000     0.12390000000000     0.31567000000000
N9     N      0.41492000000000     0.62390000000000     0.68433000000000
C1     C      0.67885000000000     0.91566000000000     0.36257000000000
C1     C      0.32115000000000     0.41566000000000     0.63743000000000
C2     C      0.37971000000000     0.12668000000000     0.18356000000000
C2     C      0.62029000000000     0.62668000000000     0.81644000000000
C3     C      0.51291000000000     0.75960000000000     0.24721000000000
C3     C      0.48709000000000     0.25960000000000     0.75279000000000
H4     H      0.65439000000000     0.26349000000000     0.36922000000000
H4     H      0.34561000000000     0.76349000000000     0.63078000000000
H5     H      0.18431000000000     0.86740000000000     0.05862000000000
H5     H      0.81569000000000     0.36740000000000     0.94138000000000
H6     H      0.71334000000000     0.65553000000000     0.20516000000000
H6     H      0.28666000000000     0.15553000000000     0.79484000000000
H7     H      0.32411000000000     0.65297000000000     0.29529000000000
H7     H      0.67589000000000     0.15297000000000     0.70471000000000
