data_default
_cell_volume           843.170451
_symmetry_space_group_name_H-M 'P 1'
_symmetry_Int_Tables_number 1
loop_
_symmetry_equiv_pos_site_id
_symmetry_equiv_pos_as_xyz
1 x,y,z
_cell_length_a         8.9625000000
_cell_length_b        12.2869000000
_cell_length_c         7.8571000000
_cell_angle_alpha        90.0000
_cell_angle_beta       102.9670
_cell_angle_gamma        90.0000
_cell_formula_units_Z 1
loop_
_atom_site_label
_atom_site_type_symbol
_atom_site_fract_x
_atom_site_fract_y
_atom_site_fract_z
C1     C      0.80551000000000     0.00120000000000     0.31531000000000
C1     C      0.30551000000000     0.50120000000000     0.31531000000000
C1     C      0.19449000000000     0.00120000000000     0.18469000000000
C1     C      0.69449000000000     0.50120000000000     0.18469000000000
C1     C      0.19449000000000     0.99880000000000     0.68469000000000
C1     C      0.69449000000000     0.49880000000000     0.68469000000000
C1     C      0.80551000000000     0.99880000000000     0.81531000000000
C1     C      0.30551000000000     0.49880000000000     0.81531000000000
C2     C      0.63725000000000     0.88293000000000     0.13425000000000
C2     C      0.13725000000000     0.38293000000000     0.13425000000000
C2     C      0.36275000000000     0.88293000000000     0.36575000000000
C2     C      0.86275000000000     0.38293000000000     0.36575000000000
C2     C      0.36275000000000     0.11707000000000     0.86575000000000
C2     C      0.86275000000000     0.61707000000000     0.86575000000000
C2     C      0.63725000000000     0.11707000000000     0.63425000000000
C2     C      0.13725000000000     0.61707000000000     0.63425000000000
N3     N      0.85600000000000     0.89760000000000     0.35743000000000
N3     N      0.35600000000000     0.39760000000000     0.35743000000000
N3     N      0.14400000000000     0.89760000000000     0.14257000000000
N3     N      0.64400000000000     0.39760000000000     0.14257000000000
N3     N      0.14400000000000     0.10240000000000     0.64257000000000
N3     N      0.64400000000000     0.60240000000000     0.64257000000000
N3     N      0.85600000000000     0.10240000000000     0.85743000000000
N3     N      0.35600000000000     0.60240000000000     0.85743000000000
N4     N      0.67260000000000     0.98974000000000     0.17951000000000
N4     N      0.17260000000000     0.48974000000000     0.17951000000000
N4     N      0.32740000000000     0.98974000000000     0.32049000000000
N4     N      0.82740000000000     0.48974000000000     0.32049000000000
N4     N      0.32740000000000     0.01026000000000     0.82049000000000
N4     N      0.82740000000000     0.51026000000000     0.82049000000000
N4     N      0.67260000000000     0.01026000000000     0.67951000000000
N4     N      0.17260000000000     0.51026000000000     0.67951000000000
C5     C      0.76078000000000     0.81505000000000     0.25358000000000
C5     C      0.26078000000000     0.31505000000000     0.25358000000000
C5     C      0.23922000000000     0.81505000000000     0.24642000000000
C5     C      0.73922000000000     0.31505000000000     0.24642000000000
C5     C      0.23922000000000     0.18495000000000     0.74642000000000
C5     C      0.73922000000000     0.68495000000000     0.74642000000000
C5     C      0.76078000000000     0.18495000000000     0.75358000000000
C5     C      0.26078000000000     0.68495000000000     0.75358000000000
O6     O      0.86013000000000     0.08765000000000     0.37831000000000
O6     O      0.36013000000000     0.58765000000000     0.37831000000000
O6     O      0.13987000000000     0.08765000000000     0.12169000000000
O6     O      0.63987000000000     0.58765000000000     0.12169000000000
O6     O      0.13987000000000     0.91235000000000     0.62169000000000
O6     O      0.63987000000000     0.41235000000000     0.62169000000000
O6     O      0.86013000000000     0.91235000000000     0.87831000000000
O6     O      0.36013000000000     0.41235000000000     0.87831000000000
O7     O      0.52943000000000     0.84948000000000     0.02194000000000
O7     O      0.02943000000000     0.34948000000000     0.02194000000000
O7     O      0.47057000000000     0.84948000000000     0.47806000000000
O7     O      0.97057000000000     0.34948000000000     0.47806000000000
O7     O      0.47057000000000     0.15052000000000     0.97806000000000
O7     O      0.97057000000000     0.65052000000000     0.97806000000000
O7     O      0.52943000000000     0.15052000000000     0.52194000000000
O7     O      0.02943000000000     0.65052000000000     0.52194000000000
H8     H      0.94148000000000     0.88419000000000     0.44293000000000
H8     H      0.44148000000000     0.38419000000000     0.44293000000000
H8     H      0.05852000000000     0.88419000000000     0.05707000000000
H8     H      0.55852000000000     0.38419000000000     0.05707000000000
H8     H      0.05852000000000     0.11581000000000     0.55707000000000
H8     H      0.55852000000000     0.61581000000000     0.55707000000000
H8     H      0.94148000000000     0.11581000000000     0.94293000000000
H8     H      0.44148000000000     0.61581000000000     0.94293000000000
H9     H      0.71260000000000     0.76482000000000     0.32559000000000
H9     H      0.21260000000000     0.26482000000000     0.32559000000000
H9     H      0.28740000000000     0.76482000000000     0.17441000000000
H9     H      0.78740000000000     0.26482000000000     0.17441000000000
H9     H      0.28740000000000     0.23518000000000     0.67441000000000
H9     H      0.78740000000000     0.73518000000000     0.67441000000000
H9     H      0.71260000000000     0.23518000000000     0.82559000000000
H9     H      0.21260000000000     0.73518000000000     0.82559000000000
H10    H      0.81731000000000     0.77096000000000     0.18177000000000
H10    H      0.31731000000000     0.27096000000000     0.18177000000000
H10    H      0.18269000000000     0.77096000000000     0.31823000000000
H10    H      0.68269000000000     0.27096000000000     0.31823000000000
H10    H      0.18269000000000     0.22904000000000     0.81823000000000
H10    H      0.68269000000000     0.72904000000000     0.81823000000000
H10    H      0.81731000000000     0.22904000000000     0.68177000000000
H10    H      0.31731000000000     0.72904000000000     0.68177000000000
H11    H      0.61705000000000     0.04845000000000     0.12833000000000
H11    H      0.11705000000000     0.54845000000000     0.12833000000000
H11    H      0.38295000000000     0.04845000000000     0.37167000000000
H11    H      0.88295000000000     0.54845000000000     0.37167000000000
H11    H      0.38295000000000     0.95155000000000     0.87167000000000
H11    H      0.88295000000000     0.45155000000000     0.87167000000000
H11    H      0.61705000000000     0.95155000000000     0.62833000000000
H11    H      0.11705000000000     0.45155000000000     0.62833000000000
