data_default
_cell_volume           418.172797
_symmetry_space_group_name_H-M 'P 1'
_symmetry_Int_Tables_number 1
loop_
_symmetry_equiv_pos_site_id
_symmetry_equiv_pos_as_xyz
1 x,y,z
_cell_length_a         6.3307000000
_cell_length_b         6.2511000000
_cell_length_c        10.5669000000
_cell_angle_alpha        90.0000
_cell_angle_beta        90.0000
_cell_angle_gamma        90.0000
_cell_formula_units_Z 1
loop_
_atom_site_label
_atom_site_type_symbol
_atom_site_fract_x
_atom_site_fract_y
_atom_site_fract_z
H42    H      0.23692000000000     0.89395000000000     0.81129000000000
H42    H      0.26308000000000     0.10605000000000     0.31129000000000
H42    H      0.76308000000000     0.39395000000000     0.18871000000000
H42    H      0.73692000000000     0.60605000000000     0.68871000000000
H42    H      0.76308000000000     0.10605000000000     0.18871000000000
H42    H      0.73692000000000     0.89395000000000     0.68871000000000
H42    H      0.23692000000000     0.60605000000000     0.81129000000000
H42    H      0.26308000000000     0.39395000000000     0.31129000000000
C34    C      0.14112000000000     0.75000000000000     0.07713000000000
C34    C      0.35888000000000     0.25000000000000     0.57713000000000
C34    C      0.85888000000000     0.25000000000000     0.92287000000000
C34    C      0.64112000000000     0.75000000000000     0.42287000000000
N35    N      0.06679000000000     0.75000000000000     0.95963000000000
N35    N      0.43321000000000     0.25000000000000     0.45963000000000
N35    N      0.93321000000000     0.25000000000000     0.04037000000000
N35    N      0.56679000000000     0.75000000000000     0.54037000000000
C36    C      0.23542000000000     0.75000000000000     0.86974000000000
C36    C      0.26458000000000     0.25000000000000     0.36974000000000
C36    C      0.76458000000000     0.25000000000000     0.13026000000000
C36    C      0.73542000000000     0.75000000000000     0.63026000000000
C37    C      0.41514000000000     0.75000000000000     0.95666000000000
C37    C      0.08486000000000     0.25000000000000     0.45666000000000
C37    C      0.58486000000000     0.25000000000000     0.04334000000000
C37    C      0.91514000000000     0.75000000000000     0.54334000000000
N38    N      0.34885000000000     0.75000000000000     0.07541000000000
N38    N      0.15115000000000     0.25000000000000     0.57541000000000
N38    N      0.65115000000000     0.25000000000000     0.92459000000000
N38    N      0.84885000000000     0.75000000000000     0.42459000000000
O39    O      0.03317000000000     0.75000000000000     0.17527000000000
O39    O      0.46683000000000     0.25000000000000     0.67527000000000
O39    O      0.96683000000000     0.25000000000000     0.82473000000000
O39    O      0.53317000000000     0.75000000000000     0.32473000000000
O40    O      0.60598000000000     0.75000000000000     0.92704000000000
O40    O      0.89402000000000     0.25000000000000     0.42704000000000
O40    O      0.39402000000000     0.25000000000000     0.07296000000000
O40    O      0.10598000000000     0.75000000000000     0.57296000000000
H41    H      0.91681000000000     0.75000000000000     0.94211000000000
H41    H      0.58319000000000     0.25000000000000     0.44211000000000
H41    H      0.08319000000000     0.25000000000000     0.05789000000000
H41    H      0.41681000000000     0.75000000000000     0.55789000000000
H44    H      0.43405000000000     0.75000000000000     0.14975000000000
H44    H      0.06595000000000     0.25000000000000     0.64975000000000
H44    H      0.56595000000000     0.25000000000000     0.85025000000000
H44    H      0.93405000000000     0.75000000000000     0.35025000000000
