data_default
_cell_volume           219.300053
_symmetry_space_group_name_H-M 'P 1'
_symmetry_Int_Tables_number 1
loop_
_symmetry_equiv_pos_site_id
_symmetry_equiv_pos_as_xyz
1 x,y,z
_cell_length_a         3.8572000000
_cell_length_b         6.1147000000
_cell_length_c         9.3338000000
_cell_angle_alpha        90.0000
_cell_angle_beta        95.0170
_cell_angle_gamma        90.0000
_cell_formula_units_Z 1
loop_
_atom_site_label
_atom_site_type_symbol
_atom_site_fract_x
_atom_site_fract_y
_atom_site_fract_z
O10    O      0.28959000000000     0.21298000000000     0.11242000000000
O10    O      0.71041000000000     0.71298000000000     0.88758000000000
O11    O      0.83839000000000     0.63343000000000     0.47536000000000
O11    O      0.16161000000000     0.13343000000000     0.52464000000000
N8     N      0.31143000000000     0.58992000000000     0.14999000000000
N8     N      0.68857000000000     0.08992000000000     0.85001000000000
N9     N      0.58956000000000     0.37639000000000     0.31376000000000
N9     N      0.41044000000000     0.87639000000000     0.68624000000000
C1     C      0.66752000000000     0.58381000000000     0.36514000000000
C1     C      0.33248000000000     0.08381000000000     0.63486000000000
C2     C      0.38243000000000     0.37394000000000     0.18115000000000
C2     C      0.61757000000000     0.87394000000000     0.81885000000000
C3     C      0.49111000000000     0.73952000000000     0.25173000000000
C3     C      0.50889000000000     0.23952000000000     0.74827000000000
H4     H      0.67044000000000     0.23717000000000     0.36466000000000
H4     H      0.32956000000000     0.73717000000000     0.63534000000000
H5     H      0.20424000000000     0.63189000000000     0.05140000000000
H5     H      0.79576000000000     0.13189000000000     0.94860000000000
H6     H      0.31451000000000     0.85014000000000     0.30241000000000
H6     H      0.68549000000000     0.35014000000000     0.69759000000000
H7     H      0.69002000000000     0.83836000000000     0.20474000000000
H7     H      0.30998000000000     0.33836000000000     0.79526000000000
