data_default
_cell_volume           196.090707
_symmetry_space_group_name_H-M 'P 1'
_symmetry_Int_Tables_number 1
loop_
_symmetry_equiv_pos_site_id
_symmetry_equiv_pos_as_xyz
1 x,y,z
_cell_length_a         3.8050000000
_cell_length_b         6.0970000000
_cell_length_c         8.6790000000
_cell_angle_alpha        90.0000
_cell_angle_beta        76.8820
_cell_angle_gamma        90.0000
_cell_formula_units_Z 1
loop_
_atom_site_label
_atom_site_type_symbol
_atom_site_fract_x
_atom_site_fract_y
_atom_site_fract_z
C1     C      0.22547000000000     0.74559000000000     0.72364000000000
C1     C      0.77453000000000     0.24559000000000     0.27636000000000
N2     N      0.31842000000000     0.61060000000000     0.85023000000000
N2     N      0.68158000000000     0.11060000000000     0.14977000000000
C3     C      0.31101000000000     0.38717000000000     0.81703000000000
C3     C      0.68899000000000     0.88717000000000     0.18297000000000
N4     N      0.21602000000000     0.36227000000000     0.67162000000000
N4     N      0.78398000000000     0.86227000000000     0.32838000000000
C5     C      0.16238000000000     0.56911000000000     0.61128000000000
C5     C      0.83762000000000     0.06911000000000     0.38872000000000
O6     O      0.37715000000000     0.23525000000000     0.90160000000000
O6     O      0.62285000000000     0.73525000000000     0.09840000000000
O7     O      0.07638000000000     0.60458000000000     0.48535000000000
O7     O      0.92362000000000     0.10458000000000     0.51465000000000
H8     H      0.45204000000000     0.85216000000000     0.66768000000000
H8     H      0.54796000000000     0.35216000000000     0.33232000000000
H9     H      0.97834000000000     0.84141000000000     0.76862000000000
H9     H      0.02166000000000     0.34141000000000     0.23138000000000
H10    H      0.38163000000000     0.67234000000000     0.95146000000000
H10    H      0.61837000000000     0.17234000000000     0.04854000000000
H11    H      0.18974000000000     0.21415000000000     0.61745000000000
H11    H      0.81026000000000     0.71415000000000     0.38255000000000
