data_default
_cell_volume           418.338823
_symmetry_space_group_name_H-M 'P 1'
_symmetry_Int_Tables_number 1
loop_
_symmetry_equiv_pos_site_id
_symmetry_equiv_pos_as_xyz
1 x,y,z
_cell_length_a         6.2550000000
_cell_length_b         6.3309000000
_cell_length_c        12.3897000000
_cell_angle_alpha        90.0000
_cell_angle_beta       121.4981
_cell_angle_gamma        90.0000
_cell_formula_units_Z 1
loop_
_atom_site_label
_atom_site_type_symbol
_atom_site_fract_x
_atom_site_fract_y
_atom_site_fract_z
C34    C      0.32670000000000     0.14073000000000     0.57709000000000
C34    C      0.67330000000000     0.64073000000000     0.92291000000000
C34    C      0.67330000000000     0.85927000000000     0.42291000000000
C34    C      0.32670000000000     0.35927000000000     0.07709000000000
N35    N      0.20940000000000     0.06648000000000     0.45958000000000
N35    N      0.79060000000000     0.56648000000000     0.04042000000000
N35    N      0.79060000000000     0.93352000000000     0.54042000000000
N35    N      0.20940000000000     0.43352000000000     0.95958000000000
C36    C      0.11991000000000     0.23516000000000     0.36973000000000
C36    C      0.88009000000000     0.73516000000000     0.13027000000000
C36    C      0.88009000000000     0.76484000000000     0.63027000000000
C36    C      0.11991000000000     0.26484000000000     0.86973000000000
C37    C      0.20630000000000     0.41484000000000     0.45670000000000
C37    C      0.79370000000000     0.91484000000000     0.04330000000000
C37    C      0.79370000000000     0.58516000000000     0.54330000000000
C37    C      0.20630000000000     0.08516000000000     0.95670000000000
N38    N      0.32480000000000     0.34847000000000     0.57543000000000
N38    N      0.67520000000000     0.84847000000000     0.92457000000000
N38    N      0.67520000000000     0.65153000000000     0.42457000000000
N38    N      0.32480000000000     0.15153000000000     0.07543000000000
O39    O      0.42490000000000     0.03272000000000     0.67521000000000
O39    O      0.57510000000000     0.53272000000000     0.82479000000000
O39    O      0.57510000000000     0.96728000000000     0.32479000000000
O39    O      0.42490000000000     0.46728000000000     0.17521000000000
O40    O      0.17713000000000     0.60568000000000     0.42712000000000
O40    O      0.82287000000000     0.10568000000000     0.07288000000000
O40    O      0.82287000000000     0.39432000000000     0.57288000000000
O40    O      0.17713000000000     0.89432000000000     0.92712000000000
H41    H      0.19181000000000     0.91652000000000     0.44203000000000
H41    H      0.80819000000000     0.41652000000000     0.05797000000000
H41    H      0.80819000000000     0.08348000000000     0.55797000000000
H41    H      0.19181000000000     0.58348000000000     0.94203000000000
H42    H      0.91592000000000     0.23663000000000     0.30927000000000
H42    H      0.08408000000000     0.73663000000000     0.19073000000000
H42    H      0.08408000000000     0.76337000000000     0.69073000000000
H42    H      0.91592000000000     0.26337000000000     0.80927000000000
H43    H      0.20770000000000     0.23685000000000     0.31330000000000
H43    H      0.79230000000000     0.73685000000000     0.18670000000000
H43    H      0.79230000000000     0.76315000000000     0.68670000000000
H43    H      0.20770000000000     0.26315000000000     0.81330000000000
H44    H      0.39888000000000     0.43361000000000     0.64980000000000
H44    H      0.60112000000000     0.93361000000000     0.85020000000000
H44    H      0.60112000000000     0.56639000000000     0.35020000000000
H44    H      0.39888000000000     0.06639000000000     0.14980000000000
