data_default
_cell_volume           201.968943
_symmetry_space_group_name_H-M 'P 1'
_symmetry_Int_Tables_number 1
loop_
_symmetry_equiv_pos_site_id
_symmetry_equiv_pos_as_xyz
1 x,y,z
_cell_length_a         4.2484300000
_cell_length_b         6.1019800000
_cell_length_c         8.2032400000
_cell_angle_alpha        90.4929
_cell_angle_beta       103.8572
_cell_angle_gamma       101.5013
_cell_formula_units_Z 1
loop_
_atom_site_label
_atom_site_type_symbol
_atom_site_fract_x
_atom_site_fract_y
_atom_site_fract_z
O1     O      0.59070000000000     0.28515000000000     0.44544000000000
O1     O      0.40930000000000     0.71485000000000     0.55456000000000
C2     C      0.31928000000000     0.23497000000000     0.33899000000000
C2     C      0.68072000000000     0.76503000000000     0.66101000000000
N3     N      0.15505000000000     0.02722000000000     0.32642000000000
N3     N      0.84495000000000     0.97278000000000     0.67358000000000
C4     C      0.89430000000000     0.00650000000000     0.20239000000000
C4     C      0.10570000000000     0.99350000000000     0.79761000000000
O5     O      0.68579000000000     0.83176000000000     0.15537000000000
O5     O      0.31421000000000     0.16824000000000     0.84463000000000
N6     N      0.87617000000000     0.19476000000000     0.12806000000000
N6     N      0.12383000000000     0.80524000000000     0.87194000000000
C7     C      0.14994000000000     0.36709000000000     0.20973000000000
C7     C      0.85006000000000     0.63291000000000     0.79027000000000
H8     H      0.07157000000000     0.50280000000000     0.26610000000000
H8     H      0.92843000000000     0.49720000000000     0.73390000000000
H9     H      0.30612000000000     0.43023000000000     0.12560000000000
H9     H      0.69388000000000     0.56977000000000     0.87440000000000
H10    H      0.69791000000000     0.20302000000000     0.03214000000000
H10    H      0.30209000000000     0.79698000000000     0.96786000000000
H11    H      0.21871000000000     0.91167000000000     0.39451000000000
H11    H      0.78129000000000     0.08833000000000     0.60549000000000
