data_default
_cell_volume           716.936391
_symmetry_space_group_name_H-M 'P 1'
_symmetry_Int_Tables_number 1
loop_
_symmetry_equiv_pos_site_id
_symmetry_equiv_pos_as_xyz
1 x,y,z
_cell_length_a         3.8736660000
_cell_length_b        17.2994360000
_cell_length_c        10.6988690000
_cell_angle_alpha        90.0000
_cell_angle_beta        89.5856
_cell_angle_gamma        90.0000
_cell_formula_units_Z 1
loop_
_atom_site_label
_atom_site_type_symbol
_atom_site_fract_x
_atom_site_fract_y
_atom_site_fract_z
C1     C      0.58521600000000     0.04879300000000     0.35094800000000
C1     C      0.41478400000000     0.54879300000000     0.14905200000000
C1     C      0.41478400000000     0.95120700000000     0.64905200000000
C1     C      0.58521600000000     0.45120700000000     0.85094800000000
C2     C      0.40809900000000     0.06166200000000     0.24060900000000
C2     C      0.59190100000000     0.56166200000000     0.25939100000000
C2     C      0.59190100000000     0.93833800000000     0.75939100000000
C2     C      0.40809900000000     0.43833800000000     0.74060900000000
C3     C      0.33291400000000     0.13749100000000     0.20321400000000
C3     C      0.66708600000000     0.63749100000000     0.29678600000000
C3     C      0.66708600000000     0.86250900000000     0.79678600000000
C3     C      0.33291400000000     0.36250900000000     0.70321400000000
C4     C      0.43431300000000     0.19885100000000     0.28033500000000
C4     C      0.56568700000000     0.69885100000000     0.21966500000000
C4     C      0.56568700000000     0.80114900000000     0.71966500000000
C4     C      0.43431300000000     0.30114900000000     0.78033500000000
C5     C      0.60850200000000     0.18379900000000     0.39065800000000
C5     C      0.39149800000000     0.68379900000000     0.10934200000000
C5     C      0.39149800000000     0.81620100000000     0.60934200000000
C5     C      0.60850200000000     0.31620100000000     0.89065800000000
C6     C      0.69040500000000     0.10894000000000     0.42844100000000
C6     C      0.30959500000000     0.60894000000000     0.07155900000000
C6     C      0.30959500000000     0.89106000000000     0.57155900000000
C6     C      0.69040500000000     0.39106000000000     0.92844100000000
Br1    Br     0.27222800000000     0.97617900000000     0.14414100000000
Br1    Br     0.72777200000000     0.47617900000000     0.35585900000000
Br1    Br     0.72777200000000     0.02382100000000     0.85585900000000
Br1    Br     0.27222800000000     0.52382100000000     0.64414100000000
Br2    Br     0.33727300000000     0.30190200000000     0.23657000000000
Br2    Br     0.66272700000000     0.80190200000000     0.26343000000000
Br2    Br     0.66272700000000     0.69809800000000     0.76343000000000
Br2    Br     0.33727300000000     0.19809800000000     0.73657000000000
Cl1    Cl     0.12032400000000     0.15526100000000     0.06587800000000
Cl1    Cl     0.87967600000000     0.65526100000000     0.43412200000000
Cl1    Cl     0.87967600000000     0.84473900000000     0.93412200000000
Cl1    Cl     0.12032400000000     0.34473900000000     0.56587800000000
F1     F      0.86350200000000     0.09520600000000     0.53403800000000
F1     F      0.13649800000000     0.59520600000000     0.96596200000000
F1     F      0.13649800000000     0.90479400000000     0.46596200000000
F1     F      0.86350200000000     0.40479400000000     0.03403800000000
H1     H      0.64629200000000     0.98923400000000     0.37857400000000
H1     H      0.35370800000000     0.48923400000000     0.12142600000000
H1     H      0.35370800000000     0.01076600000000     0.62142600000000
H1     H      0.64629200000000     0.51076600000000     0.87857400000000
H2     H      0.68676000000000     0.23215300000000     0.45054800000000
H2     H      0.31324000000000     0.73215300000000     0.04945200000000
H2     H      0.31324000000000     0.76784700000000     0.54945200000000
H2     H      0.68676000000000     0.26784700000000     0.95054800000000
