data_default
_cell_volume           733.291627
_symmetry_space_group_name_H-M 'P 1'
_symmetry_Int_Tables_number 1
loop_
_symmetry_equiv_pos_site_id
_symmetry_equiv_pos_as_xyz
1 x,y,z
_cell_length_a         3.8027000000
_cell_length_b        11.5985000000
_cell_length_c        16.9112000000
_cell_angle_alpha        90.0000
_cell_angle_beta       100.5410
_cell_angle_gamma        90.0000
_cell_formula_units_Z 1
loop_
_atom_site_label
_atom_site_type_symbol
_atom_site_fract_x
_atom_site_fract_y
_atom_site_fract_z
C1     C      0.96425000000000     0.31027000000000     0.86071000000000
C1     C      0.03575000000000     0.81027000000000     0.63929000000000
C1     C      0.03575000000000     0.68973000000000     0.13929000000000
C1     C      0.96425000000000     0.18973000000000     0.36071000000000
C2     C      0.70153000000000     0.09853000000000     0.89662000000000
C2     C      0.29847000000000     0.59853000000000     0.60338000000000
C2     C      0.29847000000000     0.90147000000000     0.10338000000000
C2     C      0.70153000000000     0.40147000000000     0.39662000000000
C3     C      0.66649000000000     0.13097000000000     0.81738000000000
C3     C      0.33351000000000     0.63097000000000     0.68262000000000
C3     C      0.33351000000000     0.86903000000000     0.18262000000000
C3     C      0.66649000000000     0.36903000000000     0.31738000000000
C4     C      0.79876000000000     0.23716000000000     0.79987000000000
C4     C      0.20124000000000     0.73716000000000     0.70013000000000
C4     C      0.20124000000000     0.76284000000000     0.20013000000000
C4     C      0.79876000000000     0.26284000000000     0.29987000000000
C5     C      0.86315000000000     0.16804000000000     0.95857000000000
C5     C      0.13685000000000     0.66804000000000     0.54143000000000
C5     C      0.13685000000000     0.83196000000000     0.04143000000000
C5     C      0.86315000000000     0.33196000000000     0.45857000000000
C6     C      0.99408000000000     0.27398000000000     0.94011000000000
C6     C      0.00592000000000     0.77398000000000     0.55989000000000
C6     C      0.00592000000000     0.72602000000000     0.05989000000000
C6     C      0.99408000000000     0.22602000000000     0.44011000000000
H7     H      0.88523000000000     0.14145000000000     0.01689000000000
H7     H      0.11477000000000     0.64145000000000     0.48311000000000
H7     H      0.11477000000000     0.85855000000000     0.98311000000000
H7     H      0.88523000000000     0.35855000000000     0.51689000000000
H8     H      0.54500000000000     0.07734000000000     0.77265000000000
H8     H      0.45500000000000     0.57734000000000     0.72735000000000
H8     H      0.45500000000000     0.92266000000000     0.22735000000000
H8     H      0.54500000000000     0.42266000000000     0.27265000000000
Cl9    Cl     0.12856000000000     0.44271000000000     0.83825000000000
Cl9    Cl     0.87144000000000     0.94271000000000     0.66175000000000
Cl9    Cl     0.87144000000000     0.55729000000000     0.16175000000000
Cl9    Cl     0.12856000000000     0.05729000000000     0.33825000000000
F10    F      0.57562000000000     0.99704000000000     0.91383000000000
F10    F      0.42438000000000     0.49704000000000     0.58617000000000
F10    F      0.42438000000000     0.00296000000000     0.08617000000000
F10    F      0.57562000000000     0.50296000000000     0.41383000000000
Br11   Br     0.74541000000000     0.27842000000000     0.69045000000000
Br11   Br     0.25459000000000     0.77842000000000     0.80955000000000
Br11   Br     0.25459000000000     0.72158000000000     0.30955000000000
Br11   Br     0.74541000000000     0.22158000000000     0.19045000000000
Br12   Br     0.21381000000000     0.36674000000000     0.02681000000000
Br12   Br     0.78619000000000     0.86674000000000     0.47319000000000
Br12   Br     0.78619000000000     0.63326000000000     0.97319000000000
Br12   Br     0.21381000000000     0.13326000000000     0.52681000000000
