data_default
_cell_volume           841.551858
_symmetry_space_group_name_H-M 'P 1'
_symmetry_Int_Tables_number 1
loop_
_symmetry_equiv_pos_site_id
_symmetry_equiv_pos_as_xyz
1 x,y,z
_cell_length_a         8.2000000000
_cell_length_b        20.0000000000
_cell_length_c         6.5215000000
_cell_angle_alpha        90.0000
_cell_angle_beta       128.1083
_cell_angle_gamma        90.0000
_cell_formula_units_Z 1
loop_
_atom_site_label
_atom_site_type_symbol
_atom_site_fract_x
_atom_site_fract_y
_atom_site_fract_z
Br1    Br     0.76469000000000     0.10567000000000     0.99783000000000
Br1    Br     0.23531000000000     0.60567000000000     0.00217000000000
Cl1    Cl     0.43334000000000     0.14388000000000     0.37928000000000
Cl1    Cl     0.56666000000000     0.64388000000000     0.62072000000000
Br2    Br     0.58060000000000     0.19084000000000     0.03553000000000
Br2    Br     0.41940000000000     0.69084000000000     0.96447000000000
H1     H      0.03424000000000     0.18790000000000     0.40461000000000
H1     H      0.96576000000000     0.68790000000000     0.59539000000000
F1     F      0.32839000000000     0.16025000000000     0.89305000000000
F1     F      0.67161000000000     0.66025000000000     0.10695000000000
H2     H      0.17158000000000     0.12434000000000     0.12267000000000
H2     H      0.82842000000000     0.62434000000000     0.87733000000000
C1     C      0.84716000000000     0.13264000000000     0.79881000000000
C1     C      0.15284000000000     0.63264000000000     0.20119000000000
C2     C      0.70319000000000     0.14881000000000     0.53419000000000
C2     C      0.29681000000000     0.64881000000000     0.46581000000000
C3     C      0.76897000000000     0.16883000000000     0.38998000000000
C3     C      0.23103000000000     0.66883000000000     0.61002000000000
C4     C      0.97997000000000     0.17256000000000     0.51226000000000
C4     C      0.02003000000000     0.67256000000000     0.48774000000000
C5     C      0.12330000000000     0.15649000000000     0.77534000000000
C5     C      0.87670000000000     0.65649000000000     0.22466000000000
C6     C      0.05768000000000     0.13660000000000     0.91848000000000
C6     C      0.94232000000000     0.63660000000000     0.08152000000000
