data_default
_cell_volume           782.624262
_symmetry_space_group_name_H-M 'P 1'
_symmetry_Int_Tables_number 1
loop_
_symmetry_equiv_pos_site_id
_symmetry_equiv_pos_as_xyz
1 x,y,z
_cell_length_a        14.2143000000
_cell_length_b        14.0996000000
_cell_length_c         3.9050000000
_cell_angle_alpha        90.0000
_cell_angle_beta        90.0000
_cell_angle_gamma        90.0000
_cell_formula_units_Z 1
loop_
_atom_site_type_symbol
_atom_site_fract_x
_atom_site_fract_y
_atom_site_fract_z
C      0.26414800000000     0.73881700000000     0.80125300000000
C      0.76414800000000     0.76118300000000     0.19874700000000
C      0.73585200000000     0.23881700000000     0.69874700000000
C      0.23585200000000     0.26118300000000     0.30125300000000
C      0.10723500000000     0.85368900000000     0.69338500000000
C      0.60723500000000     0.64631100000000     0.30661500000000
C      0.89276500000000     0.35368900000000     0.80661500000000
C      0.39276500000000     0.14631100000000     0.19338500000000
C      0.27392100000000     0.83198600000000     0.67748600000000
C      0.77392100000000     0.66801400000000     0.32251400000000
C      0.72607900000000     0.33198600000000     0.82251400000000
C      0.22607900000000     0.16801400000000     0.17748600000000
C      0.19583000000000     0.88997200000000     0.62274100000000
C      0.69583000000000     0.61002800000000     0.37725900000000
C      0.80417000000000     0.38997200000000     0.87725900000000
C      0.30417000000000     0.11002800000000     0.12274100000000
C      0.17277800000000     0.70537600000000     0.86892500000000
C      0.67277800000000     0.79462400000000     0.13107500000000
C      0.82722200000000     0.20537600000000     0.63107500000000
C      0.32722200000000     0.29462400000000     0.36892500000000
C      0.09387490000000     0.76233500000000     0.81573900000000
C      0.59387490000000     0.73766500000000     0.18426100000000
C      0.90612510000000     0.26233500000000     0.68426100000000
C      0.40612510000000     0.23766500000000     0.31573900000000
F      0.03122140000000     0.90934100000000     0.64112100000000
F      0.53122140000000     0.59065900000000     0.35887900000000
F      0.96877860000000     0.40934100000000     0.85887900000000
F      0.46877860000000     0.09065900000000     0.14112100000000
Cl     0.36100500000000     0.66790300000000     0.86783400000000
Cl     0.86100500000000     0.83209700000000     0.13216600000000
Cl     0.63899500000000     0.16790300000000     0.63216600000000
Cl     0.13899500000000     0.33209700000000     0.36783400000000
H      0.20352500000000     0.96175800000000     0.52735200000000
H      0.70352500000000     0.53824200000000     0.47264800000000
H      0.79647500000000     0.46175800000000     0.97264800000000
H      0.29647500000000     0.03824200000000     0.02735200000000
H      0.02352380000000     0.73643100000000     0.86806000000000
H      0.52352380000000     0.76356900000000     0.13194000000000
H      0.97647620000000     0.23643100000000     0.63194000000000
H      0.47647620000000     0.26356900000000     0.36806000000000
Br     0.39390900000000     0.88380900000000     0.57832100000000
Br     0.89390900000000     0.61619100000000     0.42167900000000
Br     0.60609100000000     0.38380900000000     0.92167900000000
Br     0.10609100000000     0.11619100000000     0.07832100000000
Br     0.15197500000000     0.58095100000000     0.03628000000000
Br     0.65197500000000     0.91904900000000     0.96372000000000
Br     0.84802500000000     0.08095100000000     0.46372000000000
Br     0.34802500000000     0.41904900000000     0.53628000000000
