data_default
_cell_volume           812.918725
_symmetry_space_group_name_H-M 'P 1'
_symmetry_Int_Tables_number 1
loop_
_symmetry_equiv_pos_site_id
_symmetry_equiv_pos_as_xyz
1 x,y,z
_cell_length_a         4.1438900000
_cell_length_b         7.0044300000
_cell_length_c        28.2163300000
_cell_angle_alpha        90.0000
_cell_angle_beta        83.0160
_cell_angle_gamma        90.0000
_cell_formula_units_Z 1
loop_
_atom_site_label
_atom_site_type_symbol
_atom_site_fract_x
_atom_site_fract_y
_atom_site_fract_z
C1     C      0.96101300000000     0.41445600000000     0.88382300000000
C1     C      0.03898700000000     0.91445600000000     0.61617700000000
C1     C      0.03898700000000     0.58554400000000     0.11617700000000
C1     C      0.96101300000000     0.08554400000000     0.38382300000000
Cl2    Cl     0.72879600000000     0.60986800000000     0.90591400000000
Cl2    Cl     0.27120400000000     0.10986800000000     0.59408600000000
Cl2    Cl     0.27120400000000     0.39013200000000     0.09408600000000
Cl2    Cl     0.72879600000000     0.89013200000000     0.40591400000000
C3     C      0.00952600000000     0.25757000000000     0.91371700000000
C3     C      0.99047400000000     0.75757000000000     0.58628300000000
C3     C      0.99047400000000     0.74243000000000     0.08628300000000
C3     C      0.00952600000000     0.24243000000000     0.41371700000000
Br4    Br     0.82619800000000     0.24381900000000     0.97908800000000
Br4    Br     0.17380200000000     0.74381900000000     0.52091200000000
Br4    Br     0.17380200000000     0.75618100000000     0.02091200000000
Br4    Br     0.82619800000000     0.25618100000000     0.47908800000000
C5     C      0.19989300000000     0.10236600000000     0.89567000000000
C5     C      0.80010700000000     0.60236600000000     0.60433000000000
C5     C      0.80010700000000     0.89763400000000     0.10433000000000
C5     C      0.19989300000000     0.39763400000000     0.39567000000000
H6     H      0.23604300000000     0.98812800000000     0.91745300000000
H6     H      0.76395700000000     0.48812800000000     0.58254700000000
H6     H      0.76395700000000     0.01187200000000     0.08254700000000
H6     H      0.23604300000000     0.51187200000000     0.41745300000000
C7     C      0.34294700000000     0.10141100000000     0.84822300000000
C7     C      0.65705300000000     0.60141100000000     0.65177700000000
C7     C      0.65705300000000     0.89858900000000     0.15177700000000
C7     C      0.34294700000000     0.39858900000000     0.34822300000000
F8     F      0.52998200000000     0.95184800000000     0.83090700000000
F8     F      0.47001800000000     0.45184800000000     0.66909300000000
F8     F      0.47001800000000     0.04815200000000     0.16909300000000
F8     F      0.52998200000000     0.54815200000000     0.33090700000000
C9     C      0.29470400000000     0.25517500000000     0.81844900000000
C9     C      0.70529600000000     0.75517500000000     0.68155100000000
C9     C      0.70529600000000     0.74482500000000     0.18155100000000
C9     C      0.29470400000000     0.24482500000000     0.31844900000000
H10    H      0.40053500000000     0.25349600000000     0.78347200000000
H10    H      0.59946500000000     0.75349600000000     0.71652800000000
H10    H      0.59946500000000     0.74650400000000     0.21652800000000
H10    H      0.40053500000000     0.24650400000000     0.28347200000000
C11    C      0.10479700000000     0.41124000000000     0.83575300000000
C11    C      0.89520300000000     0.91124000000000     0.66424700000000
C11    C      0.89520300000000     0.58876000000000     0.16424700000000
C11    C      0.10479700000000     0.08876000000000     0.33575300000000
Br12   Br     0.05631100000000     0.61180800000000     0.79137400000000
Br12   Br     0.94368900000000     0.11180800000000     0.70862600000000
Br12   Br     0.94368900000000     0.38819200000000     0.20862600000000
Br12   Br     0.05631100000000     0.88819200000000     0.29137400000000
