data_default
_cell_volume           764.184219
_symmetry_space_group_name_H-M 'P 1'
_symmetry_Int_Tables_number 1
loop_
_symmetry_equiv_pos_site_id
_symmetry_equiv_pos_as_xyz
1 x,y,z
_cell_length_a         3.8801000000
_cell_length_b        13.6828000000
_cell_length_c        14.4028000000
_cell_angle_alpha        90.0000
_cell_angle_beta        92.0080
_cell_angle_gamma        90.0000
_cell_formula_units_Z 1
loop_
_atom_site_label
_atom_site_type_symbol
_atom_site_fract_x
_atom_site_fract_y
_atom_site_fract_z
Br1    Br     0.51665000000000     0.14933000000000     0.40391000000000
Br1    Br     0.48335000000000     0.64933000000000     0.09609000000000
Br1    Br     0.48335000000000     0.85067000000000     0.59609000000000
Br1    Br     0.51665000000000     0.35067000000000     0.90391000000000
Br2    Br     0.93727000000000     0.41001000000000     0.12560000000000
Br2    Br     0.06273000000000     0.91001000000000     0.37440000000000
Br2    Br     0.06273000000000     0.58999000000000     0.87440000000000
Br2    Br     0.93727000000000     0.08999000000000     0.62560000000000
Cl1    Cl     0.21440000000000     0.36326000000000     0.33864000000000
Cl1    Cl     0.78560000000000     0.86326000000000     0.16136000000000
Cl1    Cl     0.78560000000000     0.63674000000000     0.66136000000000
Cl1    Cl     0.21440000000000     0.13674000000000     0.83864000000000
F1     F      0.26150000000000     0.04986000000000     0.06160000000000
F1     F      0.73850000000000     0.54986000000000     0.43840000000000
F1     F      0.73850000000000     0.95014000000000     0.93840000000000
F1     F      0.26150000000000     0.45014000000000     0.56160000000000
C1     C      0.22835000000000     0.27042000000000     0.25657000000000
C1     C      0.77165000000000     0.77042000000000     0.24343000000000
C1     C      0.77165000000000     0.72958000000000     0.74343000000000
C1     C      0.22835000000000     0.22958000000000     0.75657000000000
C2     C      0.35537000000000     0.17738000000000     0.28079000000000
C2     C      0.64463000000000     0.67738000000000     0.21921000000000
C2     C      0.64463000000000     0.82262000000000     0.71921000000000
C2     C      0.35537000000000     0.32262000000000     0.78079000000000
C3     C      0.25071000000000     0.12166000000000     0.12507000000000
C3     C      0.74929000000000     0.62166000000000     0.37493000000000
C3     C      0.74929000000000     0.87834000000000     0.87493000000000
C3     C      0.25071000000000     0.37834000000000     0.62507000000000
C4     C      0.11290000000000     0.28648000000000     0.16431000000000
C4     C      0.88710000000000     0.78648000000000     0.33569000000000
C4     C      0.88710000000000     0.71352000000000     0.83569000000000
C4     C      0.11290000000000     0.21352000000000     0.66431000000000
C5     C      0.36745000000000     0.10254000000000     0.21540000000000
C5     C      0.63255000000000     0.60254000000000     0.28460000000000
C5     C      0.63255000000000     0.89746000000000     0.78460000000000
C5     C      0.36745000000000     0.39746000000000     0.71540000000000
C6     C      0.12320000000000     0.21243000000000     0.09807000000000
C6     C      0.87680000000000     0.71243000000000     0.40193000000000
C6     C      0.87680000000000     0.78757000000000     0.90193000000000
C6     C      0.12320000000000     0.28757000000000     0.59807000000000
H1     H      0.46545000000000     0.03093000000000     0.23426000000000
H1     H      0.53455000000000     0.53093000000000     0.26574000000000
H1     H      0.53455000000000     0.96907000000000     0.76574000000000
H1     H      0.46545000000000     0.46907000000000     0.73426000000000
H2     H      0.03408000000000     0.22502000000000     0.02704000000000
H2     H      0.96592000000000     0.72502000000000     0.47296000000000
H2     H      0.96592000000000     0.77498000000000     0.97296000000000
H2     H      0.03408000000000     0.27498000000000     0.52704000000000
