data_default
_cell_volume           726.068815
_symmetry_space_group_name_H-M 'P 1'
_symmetry_Int_Tables_number 1
loop_
_symmetry_equiv_pos_site_id
_symmetry_equiv_pos_as_xyz
1 x,y,z
_cell_length_a        11.4480000000
_cell_length_b        17.0330000000
_cell_length_c         3.9400000000
_cell_angle_alpha        90.0000
_cell_angle_beta       109.0800
_cell_angle_gamma        90.0000
_cell_formula_units_Z 1
loop_
_atom_site_label
_atom_site_type_symbol
_atom_site_fract_x
_atom_site_fract_y
_atom_site_fract_z
C1     C      0.22674000000000     0.20170000000000     0.65435000000000
C1     C      0.77326000000000     0.79830000000000     0.34565000000000
C1     C      0.27326000000000     0.70170000000000     0.84565000000000
C1     C      0.72674000000000     0.29830000000000     0.15435000000000
C2     C      0.11429000000000     0.18929000000000     0.71125000000000
C2     C      0.88571000000000     0.81071000000000     0.28875000000000
C2     C      0.38571000000000     0.68929000000000     0.78875000000000
C2     C      0.61429000000000     0.31071000000000     0.21125000000000
C3     C      0.07952000000000     0.11283000000000     0.75314000000000
C3     C      0.92048000000000     0.88717000000000     0.24686000000000
C3     C      0.42048000000000     0.61283000000000     0.74686000000000
C3     C      0.57952000000000     0.38717000000000     0.25314000000000
C4     C      0.15281000000000     0.04878000000000     0.74017000000000
C4     C      0.84719000000000     0.95122000000000     0.25983000000000
C4     C      0.34719000000000     0.54878000000000     0.75983000000000
C4     C      0.65281000000000     0.45122000000000     0.24017000000000
C5     C      0.26498000000000     0.06219000000000     0.68306000000000
C5     C      0.73502000000000     0.93781000000000     0.31694000000000
C5     C      0.23502000000000     0.56219000000000     0.81694000000000
C5     C      0.76498000000000     0.43781000000000     0.18306000000000
C6     C      0.30389000000000     0.13862000000000     0.63924000000000
C6     C      0.69611000000000     0.86138000000000     0.36076000000000
C6     C      0.19611000000000     0.63862000000000     0.86076000000000
C6     C      0.80389000000000     0.36138000000000     0.13924000000000
F7     F      0.97122000000000     0.10038000000000     0.80811000000000
F7     F      0.02878000000000     0.89962000000000     0.19189000000000
F7     F      0.52878000000000     0.60038000000000     0.69189000000000
F7     F      0.47122000000000     0.39962000000000     0.30811000000000
Br8    Br     0.36356000000000     0.97358000000000     0.66645000000000
Br8    Br     0.63644000000000     0.02642000000000     0.33355000000000
Br8    Br     0.13644000000000     0.47358000000000     0.83355000000000
Br8    Br     0.86356000000000     0.52642000000000     0.16645000000000
Cl9    Cl     0.44394000000000     0.15472000000000     0.56816000000000
Cl9    Cl     0.55606000000000     0.84528000000000     0.43184000000000
Cl9    Cl     0.05606000000000     0.65472000000000     0.93184000000000
Cl9    Cl     0.94394000000000     0.34528000000000     0.06816000000000
Br10   Br     0.27219000000000     0.30687000000000     0.59785000000000
Br10   Br     0.72781000000000     0.69313000000000     0.40215000000000
Br10   Br     0.22781000000000     0.80687000000000     0.90215000000000
Br10   Br     0.77219000000000     0.19313000000000     0.09785000000000
H11    H      0.12304000000000     0.98985000000000     0.77384000000000
H11    H      0.87696000000000     0.01015000000000     0.22616000000000
H11    H      0.37696000000000     0.48985000000000     0.72616000000000
H11    H      0.62304000000000     0.51015000000000     0.27384000000000
H12    H      0.05502000000000     0.23799000000000     0.72278000000000
H12    H      0.94498000000000     0.76201000000000     0.27722000000000
H12    H      0.44498000000000     0.73799000000000     0.77722000000000
H12    H      0.55502000000000     0.26201000000000     0.22278000000000
