data_default
_cell_volume          1542.856549
_symmetry_space_group_name_H-M 'P 1'
_symmetry_Int_Tables_number 1
loop_
_symmetry_equiv_pos_site_id
_symmetry_equiv_pos_as_xyz
1 x,y,z
_cell_length_a        20.2489000000
_cell_length_b        20.2489000000
_cell_length_c         3.7629000000
_cell_angle_alpha        90.0000
_cell_angle_beta        90.0000
_cell_angle_gamma        90.0000
_cell_formula_units_Z 1
loop_
_atom_site_label
_atom_site_type_symbol
_atom_site_fract_x
_atom_site_fract_y
_atom_site_fract_z
C1     C      0.97216060000000     0.19277600000000     0.21177600000000
C1     C      0.47216060000000     0.69277600000000     0.71177600000000
C1     C      0.02783940000000     0.80722400000000     0.21177600000000
C1     C      0.52783940000000     0.30722400000000     0.71177600000000
C1     C      0.19277600000000     0.02783940000000     0.78822400000000
C1     C      0.69277600000000     0.52783940000000     0.28822400000000
C1     C      0.80722400000000     0.97216060000000     0.78822400000000
C1     C      0.30722400000000     0.47216060000000     0.28822400000000
C2     C      0.00796120000000     0.25001300000000     0.12484000000000
C2     C      0.50796120000000     0.75001300000000     0.62484000000000
C2     C      0.99203880000000     0.74998700000000     0.12484000000000
C2     C      0.49203880000000     0.24998700000000     0.62484000000000
C2     C      0.25001300000000     0.99203880000000     0.87516000000000
C2     C      0.75001300000000     0.49203880000000     0.37516000000000
C2     C      0.74998700000000     0.00796120000000     0.87516000000000
C2     C      0.24998700000000     0.50796120000000     0.37516000000000
C3     C      0.97215280000000     0.30722100000000     0.03826270000000
C3     C      0.47215280000000     0.80722100000000     0.53826270000000
C3     C      0.02784720000000     0.69277900000000     0.03826270000000
C3     C      0.52784720000000     0.19277900000000     0.53826270000000
C3     C      0.30722100000000     0.02784720000000     0.96173730000000
C3     C      0.80722100000000     0.52784720000000     0.46173730000000
C3     C      0.69277900000000     0.97215280000000     0.96173730000000
C3     C      0.19277900000000     0.47215280000000     0.46173730000000
C4     C      0.90325890000000     0.30777700000000     0.03771170000000
C4     C      0.40325890000000     0.80777700000000     0.53771170000000
C4     C      0.09674110000000     0.69222300000000     0.03771170000000
C4     C      0.59674110000000     0.19222300000000     0.53771170000000
C4     C      0.30777700000000     0.09674110000000     0.96228830000000
C4     C      0.80777700000000     0.59674110000000     0.46228830000000
C4     C      0.69222300000000     0.90325890000000     0.96228830000000
C4     C      0.19222300000000     0.40325890000000     0.46228830000000
C5     C      0.87024500000000     0.25001600000000     0.12544400000000
C5     C      0.37024500000000     0.75001600000000     0.62544400000000
C5     C      0.12975500000000     0.74998400000000     0.12544400000000
C5     C      0.62975500000000     0.24998400000000     0.62544400000000
C5     C      0.25001600000000     0.12975500000000     0.87455600000000
C5     C      0.75001600000000     0.62975500000000     0.37455600000000
C5     C      0.74998400000000     0.87024500000000     0.87455600000000
C5     C      0.24998400000000     0.37024500000000     0.37455600000000
C6     C      0.90329560000000     0.19224100000000     0.21289600000000
C6     C      0.40329560000000     0.69224100000000     0.71289600000000
C6     C      0.09670440000000     0.80775900000000     0.21289600000000
C6     C      0.59670440000000     0.30775900000000     0.71289600000000
C6     C      0.19224100000000     0.09670440000000     0.78710400000000
C6     C      0.69224100000000     0.59670440000000     0.28710400000000
C6     C      0.80775900000000     0.90329560000000     0.78710400000000
C6     C      0.30775900000000     0.40329560000000     0.28710400000000
BR1    Br     0.01618940000000     0.11333400000000     0.33205400000000
BR1    Br     0.51618940000000     0.61333400000000     0.83205400000000
BR1    Br     0.98381060000000     0.88666600000000     0.33205400000000
BR1    Br     0.48381060000000     0.38666600000000     0.83205400000000
BR1    Br     0.11333400000000     0.98381060000000     0.66794600000000
BR1    Br     0.61333400000000     0.48381060000000     0.16794600000000
BR1    Br     0.88666600000000     0.01618940000000     0.66794600000000
BR1    Br     0.38666600000000     0.51618940000000     0.16794600000000
BR3    Br     0.01617380000000     0.38665100000000     0.91763230000000
BR3    Br     0.51617380000000     0.88665100000000     0.41763230000000
BR3    Br     0.98382620000000     0.61334900000000     0.91763230000000
BR3    Br     0.48382620000000     0.11334900000000     0.41763230000000
BR3    Br     0.38665100000000     0.98382620000000     0.08236770000000
BR3    Br     0.88665100000000     0.48382620000000     0.58236770000000
BR3    Br     0.61334900000000     0.01617380000000     0.08236770000000
BR3    Br     0.11334900000000     0.51617380000000     0.58236770000000
CL2    Cl     0.09294390000000     0.24999400000000     0.12450000000000
CL2    Cl     0.59294390000000     0.74999400000000     0.62450000000000
CL2    Cl     0.90705610000000     0.75000600000000     0.12450000000000
CL2    Cl     0.40705610000000     0.25000600000000     0.62450000000000
CL2    Cl     0.24999400000000     0.90705610000000     0.87550000000000
CL2    Cl     0.74999400000000     0.40705610000000     0.37550000000000
CL2    Cl     0.75000600000000     0.09294390000000     0.87550000000000
CL2    Cl     0.25000600000000     0.59294390000000     0.37550000000000
F5     F      0.80353300000000     0.25001100000000     0.12572500000000
F5     F      0.30353300000000     0.75001100000000     0.62572500000000
F5     F      0.19646700000000     0.74998900000000     0.12572500000000
F5     F      0.69646700000000     0.24998900000000     0.62572500000000
F5     F      0.25001100000000     0.19646700000000     0.87427500000000
F5     F      0.75001100000000     0.69646700000000     0.37427500000000
F5     F      0.74998900000000     0.80353300000000     0.87427500000000
F5     F      0.24998900000000     0.30353300000000     0.37427500000000
H4     H      0.87609900000000     0.35195900000000     0.97084860000000
H4     H      0.37609900000000     0.85195900000000     0.47084860000000
H4     H      0.12390100000000     0.64804100000000     0.97084860000000
H4     H      0.62390100000000     0.14804100000000     0.47084860000000
H4     H      0.35195900000000     0.12390100000000     0.02915140000000
H4     H      0.85195900000000     0.62390100000000     0.52915140000000
H4     H      0.64804100000000     0.87609900000000     0.02915140000000
H4     H      0.14804100000000     0.37609900000000     0.52915140000000
H6     H      0.87612600000000     0.14807300000000     0.27998900000000
H6     H      0.37612600000000     0.64807300000000     0.77998900000000
H6     H      0.12387400000000     0.85192700000000     0.27998900000000
H6     H      0.62387400000000     0.35192700000000     0.77998900000000
H6     H      0.14807300000000     0.12387400000000     0.72001100000000
H6     H      0.64807300000000     0.62387400000000     0.22001100000000
H6     H      0.85192700000000     0.87612600000000     0.72001100000000
H6     H      0.35192700000000     0.37612600000000     0.22001100000000
