data_default
_cell_volume           809.254791
_symmetry_space_group_name_H-M 'P 1'
_symmetry_Int_Tables_number 1
loop_
_symmetry_equiv_pos_site_id
_symmetry_equiv_pos_as_xyz
1 x,y,z
_cell_length_a        20.0990000000
_cell_length_b        11.4671000000
_cell_length_c        21.8247000000
_cell_angle_alpha       169.8440
_cell_angle_beta        85.7208
_cell_angle_gamma        98.3031
_cell_formula_units_Z 1
loop_
_atom_site_label
_atom_site_type_symbol
_atom_site_fract_x
_atom_site_fract_y
_atom_site_fract_z
C1     C      0.38933000000000     0.51873000000000     0.54361000000000
C1     C      0.61067000000000     0.48127000000000     0.45639000000000
C2     C      0.44765000000000     0.60583000000000     0.62299000000000
C2     C      0.55235000000000     0.39417000000000     0.37701000000000
C3     C      0.43489000000000     0.28470000000000     0.51564000000000
C3     C      0.56511000000000     0.71530000000000     0.48436000000000
C4     C      0.36356000000000     0.87645000000000     0.32959000000000
C4     C      0.63644000000000     0.12355000000000     0.67041000000000
C5     C      0.30540000000000     0.78975000000000     0.24926000000000
C5     C      0.69460000000000     0.21025000000000     0.75074000000000
C6     C      0.31823000000000     0.10812000000000     0.35500000000000
C6     C      0.68177000000000     0.89188000000000     0.64500000000000
H1     H      0.50289000000000     0.93321000000000     0.77342000000000
H1     H      0.49711000000000     0.06679000000000     0.22658000000000
H2     H      0.27318000000000     0.04597000000000     0.29548000000000
H2     H      0.72682000000000     0.95403000000000     0.70452000000000
Cl1    Cl     0.34738000000000     0.49105000000000     0.20396000000000
Cl1    Cl     0.65262000000000     0.50895000000000     0.79604000000000
F1     F      0.40196000000000     0.83864000000000     0.65299000000000
F1     F      0.59804000000000     0.16136000000000     0.34701000000000
Br1    Br     0.20701000000000     0.24858000000000     0.00011000000000
Br1    Br     0.79299000000000     0.75142000000000     0.99989000000000
Br2    Br     0.51722000000000     0.42937000000000     0.63493000000000
Br2    Br     0.48278000000000     0.57063000000000     0.36507000000000
C1     C      0.11067000000000     0.90409000000000     0.48629000000000
C1     C      0.88933000000000     0.09591000000000     0.51371000000000
C2     C      0.18177000000000     0.06223000000000     0.58205000000000
C2     C      0.81823000000000     0.93777000000000     0.41795000000000
C3     C      0.19460000000000     0.84656000000000     0.52766000000000
C3     C      0.80540000000000     0.15344000000000     0.47234000000000
C4     C      0.13644000000000     0.46795000000000     0.37534000000000
C4     C      0.86356000000000     0.53205000000000     0.62466000000000
C5     C      0.06511000000000     0.30559000000000     0.27607000000000
C5     C      0.93489000000000     0.69441000000000     0.72393000000000
C6     C      0.05235000000000     0.52463000000000     0.33239000000000
C6     C      0.94765000000000     0.47537000000000     0.66761000000000
H1     H      0.22682000000000     0.36048000000000     0.70273000000000
H1     H      0.77318000000000     0.63952000000000     0.29727000000000
H2     H      0.99712000000000     0.41018000000000     0.26190000000000
H2     H      0.00288000000000     0.58982000000000     0.73810000000000
Cl1    Cl     0.15262000000000     0.21199000000000     0.31443000000000
Cl1    Cl     0.84738000000000     0.78801000000000     0.68557000000000
F1     F      0.09804000000000     0.12297000000000     0.54515000000000
F1     F      0.90196000000000     0.87703000000000     0.45485000000000
Br1    Br     0.98278000000000     0.79161000000000     0.06605000000000
Br1    Br     0.01722000000000     0.20839000000000     0.93395000000000
Br2    Br     0.29299000000000     0.09248000000000     0.67206000000000
Br2    Br     0.70701000000000     0.90752000000000     0.32794000000000
