data_default
_cell_volume           731.316000
_symmetry_space_group_name_H-M 'P 1'
_symmetry_Int_Tables_number 1
loop_
_symmetry_equiv_pos_site_id
_symmetry_equiv_pos_as_xyz
1 x,y,z
_cell_length_a         3.8418000000
_cell_length_b         6.9274000000
_cell_length_c        27.5940000000
_cell_angle_alpha        90.0000
_cell_angle_beta        95.2340
_cell_angle_gamma        90.0000
_cell_formula_units_Z 1
loop_
_atom_site_label
_atom_site_type_symbol
_atom_site_fract_x
_atom_site_fract_y
_atom_site_fract_z
C1     C      0.74116000000000     0.88640000000000     0.88536000000000
C1     C      0.25884000000000     0.38640000000000     0.61464000000000
C1     C      0.25884000000000     0.11360000000000     0.11464000000000
C1     C      0.74116000000000     0.61360000000000     0.38536000000000
C2     C      0.01941000000000     0.55625000000000     0.84827000000000
C2     C      0.98059000000000     0.05625000000000     0.65173000000000
C2     C      0.98059000000000     0.44375000000000     0.15173000000000
C2     C      0.01941000000000     0.94375000000000     0.34827000000000
C3     C      0.99484000000000     0.56891000000000     0.89756000000000
C3     C      0.00516000000000     0.06891000000000     0.60244000000000
C3     C      0.00516000000000     0.43109000000000     0.10244000000000
C3     C      0.99484000000000     0.93109000000000     0.39756000000000
C4     C      0.85517000000000     0.73475000000000     0.91586000000000
C4     C      0.14483000000000     0.23475000000000     0.58414000000000
C4     C      0.14483000000000     0.26525000000000     0.08414000000000
C4     C      0.85517000000000     0.76525000000000     0.41586000000000
C5     C      0.90993000000000     0.70255000000000     0.81684000000000
C5     C      0.09007000000000     0.20255000000000     0.68316000000000
C5     C      0.09007000000000     0.29745000000000     0.18316000000000
C5     C      0.90993000000000     0.79745000000000     0.31684000000000
C6     C      0.77084000000000     0.86747000000000     0.83569000000000
C6     C      0.22916000000000     0.36747000000000     0.66431000000000
C6     C      0.22916000000000     0.13253000000000     0.16431000000000
C6     C      0.77084000000000     0.63253000000000     0.33569000000000
H7     H      0.93157000000000     0.68876000000000     0.78036000000000
H7     H      0.06843000000000     0.18876000000000     0.71964000000000
H7     H      0.06843000000000     0.31124000000000     0.21964000000000
H7     H      0.93157000000000     0.81124000000000     0.28036000000000
H8     H      0.07849000000000     0.45763000000000     0.91999000000000
H8     H      0.92151000000000     0.95763000000000     0.58001000000000
H8     H      0.92151000000000     0.54237000000000     0.08001000000000
H8     H      0.07849000000000     0.04237000000000     0.41999000000000
Cl9    Cl     0.56714000000000     0.09290000000000     0.90855000000000
Cl9    Cl     0.43286000000000     0.59290000000000     0.59145000000000
Cl9    Cl     0.43286000000000     0.90710000000000     0.09145000000000
Cl9    Cl     0.56714000000000     0.40710000000000     0.40855000000000
F10    F      0.15277000000000     0.39801000000000     0.83050000000000
F10    F      0.84723000000000     0.89801000000000     0.66950000000000
F10    F      0.84723000000000     0.60199000000000     0.16950000000000
F10    F      0.15277000000000     0.10199000000000     0.33050000000000
Br11   Br     0.82600000000000     0.74642000000000     0.98366000000000
Br11   Br     0.17400000000000     0.24642000000000     0.51634000000000
Br11   Br     0.17400000000000     0.25358000000000     0.01634000000000
Br11   Br     0.82600000000000     0.75358000000000     0.48366000000000
Br12   Br     0.62381000000000     0.06477000000000     0.79136000000000
Br12   Br     0.37619000000000     0.56477000000000     0.70864000000000
Br12   Br     0.37619000000000     0.93523000000000     0.20864000000000
Br12   Br     0.62381000000000     0.43523000000000     0.29136000000000
