data_default
_cell_volume           723.469012
_symmetry_space_group_name_H-M 'P 1'
_symmetry_Int_Tables_number 1
loop_
_symmetry_equiv_pos_site_id
_symmetry_equiv_pos_as_xyz
1 x,y,z
_cell_length_a         3.8514000000
_cell_length_b        17.2235000000
_cell_length_c        10.9092000000
_cell_angle_alpha        90.0000
_cell_angle_beta        91.3070
_cell_angle_gamma        90.0000
_cell_formula_units_Z 1
loop_
_atom_site_label
_atom_site_type_symbol
_atom_site_fract_x
_atom_site_fract_y
_atom_site_fract_z
C1     C      0.34695000000000     0.63893000000000     0.69857000000000
C1     C      0.65305000000000     0.13893000000000     0.80143000000000
C1     C      0.65305000000000     0.36107000000000     0.30143000000000
C1     C      0.34695000000000     0.86107000000000     0.19857000000000
C2     C      0.68161000000000     0.61288000000000     0.92123000000000
C2     C      0.31839000000000     0.11288000000000     0.57877000000000
C2     C      0.31839000000000     0.38712000000000     0.07877000000000
C2     C      0.68161000000000     0.88712000000000     0.42123000000000
C3     C      0.60942000000000     0.68797000000000     0.88642000000000
C3     C      0.39058000000000     0.18797000000000     0.61358000000000
C3     C      0.39058000000000     0.31203000000000     0.11358000000000
C3     C      0.60942000000000     0.81203000000000     0.38642000000000
C4     C      0.44172000000000     0.70055000000000     0.77475000000000
C4     C      0.55828000000000     0.20055000000000     0.72525000000000
C4     C      0.55828000000000     0.29945000000000     0.22525000000000
C4     C      0.44172000000000     0.79945000000000     0.27475000000000
C5     C      0.59258000000000     0.55032000000000     0.84884000000000
C5     C      0.40742000000000     0.05032000000000     0.65116000000000
C5     C      0.40742000000000     0.44968000000000     0.15116000000000
C5     C      0.59258000000000     0.94968000000000     0.34884000000000
C6     C      0.42502000000000     0.56383000000000     0.73743000000000
C6     C      0.57498000000000     0.06383000000000     0.76257000000000
C6     C      0.57498000000000     0.43617000000000     0.26257000000000
C6     C      0.42502000000000     0.93617000000000     0.23743000000000
H7     H      0.64975000000000     0.49516000000000     0.87731000000000
H7     H      0.35025000000000     0.99516000000000     0.62269000000000
H7     H      0.35025000000000     0.50484000000000     0.12269000000000
H7     H      0.64975000000000     0.00484000000000     0.37731000000000
H8     H      0.67891000000000     0.73327000000000     0.94230000000000
H8     H      0.32109000000000     0.23327000000000     0.55770000000000
H8     H      0.32109000000000     0.26673000000000     0.05770000000000
H8     H      0.67891000000000     0.76673000000000     0.44230000000000
Cl9    Cl     0.13764000000000     0.65522000000000     0.55929000000000
Cl9    Cl     0.86236000000000     0.15522000000000     0.94071000000000
Cl9    Cl     0.86236000000000     0.34478000000000     0.44071000000000
Cl9    Cl     0.13764000000000     0.84478000000000     0.05929000000000
F10    F      0.84201000000000     0.60039000000000     0.02795000000000
F10    F      0.15799000000000     0.10039000000000     0.47205000000000
F10    F      0.15799000000000     0.39961000000000     0.97205000000000
F10    F      0.84201000000000     0.89961000000000     0.52795000000000
Br11   Br     0.34742000000000     0.80440000000000     0.73039000000000
Br11   Br     0.65258000000000     0.30440000000000     0.76961000000000
Br11   Br     0.65258000000000     0.19560000000000     0.26961000000000
Br11   Br     0.34742000000000     0.69560000000000     0.23039000000000
Br12   Br     0.30742000000000     0.47647000000000     0.64086000000000
Br12   Br     0.69258000000000     0.97647000000000     0.85914000000000
Br12   Br     0.69258000000000     0.52353000000000     0.35914000000000
Br12   Br     0.30742000000000     0.02353000000000     0.14086000000000
