data_default
_cell_volume           406.676250
_symmetry_space_group_name_H-M 'P 1'
_symmetry_Int_Tables_number 1
loop_
_symmetry_equiv_pos_site_id
_symmetry_equiv_pos_as_xyz
1 x,y,z
_cell_length_a         4.1359800000
_cell_length_b         7.0045900000
_cell_length_c        14.1453200000
_cell_angle_alpha        90.0000
_cell_angle_beta        82.9190
_cell_angle_gamma        90.0000
_cell_formula_units_Z 1
loop_
_atom_site_label
_atom_site_type_symbol
_atom_site_fract_x
_atom_site_fract_y
_atom_site_fract_z
C1     C      0.96199800000000     0.62086600000000     0.76749300000000
C1     C      0.03800200000000     0.12086600000000     0.23250700000000
Cl2    Cl     0.73070500000000     0.42460200000000     0.81121900000000
Cl2    Cl     0.26929500000000     0.92460200000000     0.18878100000000
C3     C      0.10489000000000     0.62554000000000     0.67143500000000
C3     C      0.89511000000000     0.12554000000000     0.32856500000000
Br4    Br     0.05621300000000     0.42605800000000     0.58234700000000
Br4    Br     0.94378700000000     0.92605800000000     0.41765300000000
C5     C      0.29397500000000     0.78233300000000     0.63718200000000
C5     C      0.70602500000000     0.28233300000000     0.36281800000000
H6     H      0.39913800000000     0.78511300000000     0.56728100000000
H6     H      0.60086200000000     0.28511300000000     0.43271900000000
C7     C      0.34231200000000     0.93535300000000     0.69700500000000
C7     C      0.65768800000000     0.43535300000000     0.30299500000000
F8     F      0.52851600000000     0.08562000000000     0.66266100000000
F8     F      0.47148400000000     0.58562000000000     0.33733900000000
C9     C      0.20022100000000     0.93291500000000     0.79184600000000
C9     C      0.79977900000000     0.43291500000000     0.20815400000000
H10    H      0.23645400000000     0.04658000000000     0.83564300000000
H10    H      0.76354600000000     0.54658000000000     0.16435700000000
C11    C      0.01063400000000     0.77697600000000     0.82757900000000
C11    C      0.98936600000000     0.27697600000000     0.17242100000000
Br12   Br     0.82850500000000     0.78861800000000     0.95826300000000
Br12   Br     0.17149500000000     0.28861800000000     0.04173700000000
