data_default
_cell_volume           760.898597
_symmetry_space_group_name_H-M 'P 1'
_symmetry_Int_Tables_number 1
loop_
_symmetry_equiv_pos_site_id
_symmetry_equiv_pos_as_xyz
1 x,y,z
_cell_length_a         3.8052000000
_cell_length_b        13.7907000000
_cell_length_c        20.3390000000
_cell_angle_alpha        90.0000
_cell_angle_beta       134.5280
_cell_angle_gamma        90.0000
_cell_formula_units_Z 1
loop_
_atom_site_label
_atom_site_type_symbol
_atom_site_fract_x
_atom_site_fract_y
_atom_site_fract_z
C1     C      0.72692200000000     0.82940000000000     0.72013200000000
C1     C      0.27307800000000     0.32940000000000     0.77986800000000
C1     C      0.27307800000000     0.17060000000000     0.27986800000000
C1     C      0.72692200000000     0.67060000000000     0.22013200000000
C2     C      0.68195200000000     0.73714600000000     0.74299800000000
C2     C      0.31804800000000     0.23714600000000     0.75700200000000
C2     C      0.31804800000000     0.26285400000000     0.25700200000000
C2     C      0.68195200000000     0.76285400000000     0.24299800000000
C3     C      0.93501200000000     0.71982800000000     0.83531100000000
C3     C      0.06498800000000     0.21982800000000     0.66468900000000
C3     C      0.06498800000000     0.28017200000000     0.16468900000000
C3     C      0.93501200000000     0.78017200000000     0.33531100000000
C4     C      0.22282000000000     0.79136300000000     0.90271300000000
C4     C      0.77718000000000     0.29136300000000     0.59728700000000
C4     C      0.77718000000000     0.20863700000000     0.09728700000000
C4     C      0.22282000000000     0.70863700000000     0.40271300000000
C5     C      0.25522000000000     0.88120500000000     0.87661500000000
C5     C      0.74478000000000     0.38120500000000     0.62338500000000
C5     C      0.74478000000000     0.11879500000000     0.12338500000000
C5     C      0.25522000000000     0.61879500000000     0.37661500000000
C6     C      0.01260000000000     0.90195100000000     0.78640600000000
C6     C      0.98740000000000     0.40195100000000     0.71359400000000
C6     C      0.98740000000000     0.09804900000000     0.21359400000000
C6     C      0.01260000000000     0.59804900000000     0.28640600000000
BR1    Br     0.39919200000000     0.85941100000000     0.59746600000000
BR1    Br     0.60080800000000     0.35941100000000     0.90253400000000
BR1    Br     0.60080800000000     0.14058900000000     0.40253400000000
BR1    Br     0.39919200000000     0.64058900000000     0.09746600000000
BR3    Br     0.89618200000000     0.59772500000000     0.87253700000000
BR3    Br     0.10381800000000     0.09772500000000     0.62746300000000
BR3    Br     0.10381800000000     0.40227500000000     0.12746300000000
BR3    Br     0.89618200000000     0.90227500000000     0.37253700000000
CL2    Cl     0.32815800000000     0.64826800000000     0.66052800000000
CL2    Cl     0.67184200000000     0.14826800000000     0.83947200000000
CL2    Cl     0.67184200000000     0.35173200000000     0.33947200000000
CL2    Cl     0.32815800000000     0.85173200000000     0.16052800000000
F5     F      0.53293000000000     0.95099300000000     0.94133500000000
F5     F      0.46707000000000     0.45099300000000     0.55866500000000
F5     F      0.46707000000000     0.04900700000000     0.05866500000000
F5     F      0.53293000000000     0.54900700000000     0.44133500000000
H4     H      0.41619000000000     0.77747000000000     0.97352600000000
H4     H      0.58381000000000     0.27747000000000     0.52647400000000
H4     H      0.58381000000000     0.22253000000000     0.02647400000000
H4     H      0.41619000000000     0.72253000000000     0.47352600000000
H6     H      0.04540000000000     0.97266400000000     0.76831600000000
H6     H      0.95460000000000     0.47266400000000     0.73168400000000
H6     H      0.95460000000000     0.02733600000000     0.23168400000000
H6     H      0.04540000000000     0.52733600000000     0.26831600000000
