data_default
_cell_volume           739.087149
_symmetry_space_group_name_H-M 'P 1'
_symmetry_Int_Tables_number 1
loop_
_symmetry_equiv_pos_site_id
_symmetry_equiv_pos_as_xyz
1 x,y,z
_cell_length_a         3.6733200000
_cell_length_b        13.5522100000
_cell_length_c        15.9241500000
_cell_angle_alpha        90.0000
_cell_angle_beta       111.1987
_cell_angle_gamma        90.0000
_cell_formula_units_Z 1
loop_
_atom_site_label
_atom_site_type_symbol
_atom_site_fract_x
_atom_site_fract_y
_atom_site_fract_z
C1     C      0.50877000000000     0.12769000000000     0.60010000000000
C1     C      0.49123000000000     0.87231000000000     0.39990000000000
C1     C      0.49123000000000     0.62769000000000     0.89990000000000
C1     C      0.50877000000000     0.37231000000000     0.10010000000000
C2     C      0.46435000000000     0.03864000000000     0.63661000000000
C2     C      0.53565000000000     0.96136000000000     0.36339000000000
C2     C      0.53565000000000     0.53864000000000     0.86339000000000
C2     C      0.46435000000000     0.46136000000000     0.13661000000000
C3     C      0.59136000000000     0.02349000000000     0.72807000000000
C3     C      0.40864000000000     0.97651000000000     0.27193000000000
C3     C      0.40864000000000     0.52349000000000     0.77193000000000
C3     C      0.59136000000000     0.47651000000000     0.22807000000000
C4     C      0.76946000000000     0.10072000000000     0.78481000000000
C4     C      0.23054000000000     0.89928000000000     0.21519000000000
C4     C      0.23054000000000     0.60072000000000     0.71519000000000
C4     C      0.76946000000000     0.39928000000000     0.28481000000000
C5     C      0.82043000000000     0.19211000000000     0.75074000000000
C5     C      0.17957000000000     0.80789000000000     0.24926000000000
C5     C      0.17957000000000     0.69211000000000     0.74926000000000
C5     C      0.82043000000000     0.30789000000000     0.25074000000000
C6     C      0.68740000000000     0.20421000000000     0.65770000000000
C6     C      0.31260000000000     0.79579000000000     0.34230000000000
C6     C      0.31260000000000     0.70421000000000     0.84230000000000
C6     C      0.68740000000000     0.29579000000000     0.15770000000000
H7     H      0.40642000000000     0.13709000000000     0.52845000000000
H7     H      0.59358000000000     0.86291000000000     0.47155000000000
H7     H      0.59358000000000     0.63709000000000     0.97155000000000
H7     H      0.40642000000000     0.36291000000000     0.02845000000000
H8     H      0.55224000000000     0.95313000000000     0.75438000000000
H8     H      0.44776000000000     0.04687000000000     0.24562000000000
H8     H      0.44776000000000     0.45313000000000     0.74562000000000
H8     H      0.55224000000000     0.54687000000000     0.25438000000000
CL9    Cl     0.04317000000000     0.28809000000000     0.82212000000000
CL9    Cl     0.95683000000000     0.71191000000000     0.17788000000000
CL9    Cl     0.95683000000000     0.78809000000000     0.67788000000000
CL9    Cl     0.04317000000000     0.21191000000000     0.32212000000000
F10    F      0.29363000000000     0.96509000000000     0.58191000000000
F10    F      0.70637000000000     0.03491000000000     0.41809000000000
F10    F      0.70637000000000     0.46509000000000     0.91809000000000
F10    F      0.29363000000000     0.53491000000000     0.08191000000000
BR11   Br     0.93951000000000     0.07692000000000     0.90980000000000
BR11   Br     0.06049000000000     0.92308000000000     0.09020000000000
BR11   Br     0.06049000000000     0.57692000000000     0.59020000000000
BR11   Br     0.93951000000000     0.42308000000000     0.40980000000000
BR12   Br     0.74272000000000     0.32516000000000     0.60493000000000
BR12   Br     0.25728000000000     0.67484000000000     0.39507000000000
BR12   Br     0.25728000000000     0.82516000000000     0.89507000000000
BR12   Br     0.74272000000000     0.17484000000000     0.10493000000000
