data_default
_cell_volume           402.735615
_symmetry_space_group_name_H-M 'P 1'
_symmetry_Int_Tables_number 1
loop_
_symmetry_equiv_pos_site_id
_symmetry_equiv_pos_as_xyz
1 x,y,z
_cell_length_a        18.3680600000
_cell_length_b         4.1544200000
_cell_length_c        16.1360400000
_cell_angle_alpha        64.8280
_cell_angle_beta        21.4550
_cell_angle_gamma        69.8290
_cell_formula_units_Z 1
loop_
_atom_site_label
_atom_site_type_symbol
_atom_site_fract_x
_atom_site_fract_y
_atom_site_fract_z
C1     C      0.51905200000000     0.31346600000000     0.71328300000000
C1     C      0.48094800000000     0.68653400000000     0.28671700000000
Cl2    Cl     0.33469200000000     0.57757200000000     0.85637500000000
Cl2    Cl     0.66530800000000     0.42242800000000     0.14362500000000
C3     C      0.49640300000000     0.07914800000000     0.83200600000000
C3     C      0.50359700000000     0.92085200000000     0.16799400000000
Br4    Br     0.27018400000000     0.03318300000000     0.14985000000000
Br4    Br     0.72981600000000     0.96681700000000     0.85015000000000
C5     C      0.64459800000000     0.86553600000000     0.71588900000000
C5     C      0.35540200000000     0.13446400000000     0.28411100000000
H6     H      0.62845800000000     0.69422400000000     0.80189800000000
H6     H      0.37154200000000     0.30577600000000     0.19810200000000
C7     C      0.81479900000000     0.88082100000000     0.48368400000000
C7     C      0.18520100000000     0.11917900000000     0.51631600000000
F8     F      0.95591700000000     0.66865100000000     0.37471600000000
F8     F      0.04408300000000     0.33134900000000     0.62528400000000
C9     C      0.83891600000000     0.11279500000000     0.36468000000000
C9     C      0.16108400000000     0.88720500000000     0.63532000000000
H10    H      0.96513700000000     0.12307600000000     0.19306400000000
H10    H      0.03486300000000     0.87692400000000     0.80693600000000
C11    C      0.69282600000000     0.32965400000000     0.47721200000000
C11    C      0.30717400000000     0.67034600000000     0.52278800000000
Br12   Br     0.74204300000000     0.63719300000000     0.29702700000000
Br12   Br     0.25795700000000     0.36280700000000     0.70297300000000
