data_default
_cell_volume           757.692337
_symmetry_space_group_name_H-M 'P 1'
_symmetry_Int_Tables_number 1
loop_
_symmetry_equiv_pos_site_id
_symmetry_equiv_pos_as_xyz
1 x,y,z
_cell_length_a         3.8943000000
_cell_length_b        13.5109000000
_cell_length_c        14.4296000000
_cell_angle_alpha        90.0000
_cell_angle_beta        93.6360
_cell_angle_gamma        90.0000
_cell_formula_units_Z 1
loop_
_atom_site_label
_atom_site_type_symbol
_atom_site_fract_x
_atom_site_fract_y
_atom_site_fract_z
Br2    Br     0.01129000000000     0.14882000000000     0.90258000000000
Br2    Br     0.98871000000000     0.64882000000000     0.59742000000000
Br2    Br     0.98871000000000     0.85118000000000     0.09742000000000
Br2    Br     0.01129000000000     0.35118000000000     0.40258000000000
Br6    Br     0.39102000000000     0.40777000000000     0.62652000000000
Br6    Br     0.60898000000000     0.90777000000000     0.87348000000000
Br6    Br     0.60898000000000     0.59223000000000     0.37348000000000
Br6    Br     0.39102000000000     0.09223000000000     0.12652000000000
Cl1    Cl     0.66190000000000     0.35899000000000     0.83886000000000
Cl1    Cl     0.33810000000000     0.85899000000000     0.66114000000000
Cl1    Cl     0.33810000000000     0.64101000000000     0.16114000000000
Cl1    Cl     0.66190000000000     0.14101000000000     0.33886000000000
F4     F      0.77730000000000     0.05140000000000     0.55940000000000
F4     F      0.22270000000000     0.55140000000000     0.94060000000000
F4     F      0.22270000000000     0.94860000000000     0.44060000000000
F4     F      0.77730000000000     0.44860000000000     0.05940000000000
C1     C      0.69500000000000     0.26760000000000     0.75630000000000
C1     C      0.30500000000000     0.76760000000000     0.74370000000000
C1     C      0.30500000000000     0.73240000000000     0.24370000000000
C1     C      0.69500000000000     0.23240000000000     0.25630000000000
C2     C      0.84410000000000     0.17730000000000     0.78010000000000
C2     C      0.15590000000000     0.67730000000000     0.71990000000000
C2     C      0.15590000000000     0.82270000000000     0.21990000000000
C2     C      0.84410000000000     0.32270000000000     0.28010000000000
C3     C      0.87180000000000     0.10310000000000     0.71380000000000
C3     C      0.12820000000000     0.60310000000000     0.78620000000000
C3     C      0.12820000000000     0.89690000000000     0.28620000000000
C3     C      0.87180000000000     0.39690000000000     0.21380000000000
H3     H      0.97060000000000     0.04070000000000     0.73000000000000
H3     H      0.02940000000000     0.54070000000000     0.77000000000000
H3     H      0.02940000000000     0.95930000000000     0.27000000000000
H3     H      0.97060000000000     0.45930000000000     0.23000000000000
C4     C      0.75230000000000     0.12310000000000     0.62440000000000
C4     C      0.24770000000000     0.62310000000000     0.87560000000000
C4     C      0.24770000000000     0.87690000000000     0.37560000000000
C4     C      0.75230000000000     0.37690000000000     0.12440000000000
C5     C      0.60350000000000     0.21160000000000     0.59680000000000
C5     C      0.39650000000000     0.71160000000000     0.90320000000000
C5     C      0.39650000000000     0.78840000000000     0.40320000000000
C5     C      0.60350000000000     0.28840000000000     0.09680000000000
H5     H      0.51980000000000     0.22260000000000     0.53440000000000
H5     H      0.48020000000000     0.72260000000000     0.96560000000000
H5     H      0.48020000000000     0.77740000000000     0.46560000000000
H5     H      0.51980000000000     0.27740000000000     0.03440000000000
C6     C      0.58140000000000     0.28380000000000     0.66410000000000
C6     C      0.41860000000000     0.78380000000000     0.83590000000000
C6     C      0.41860000000000     0.71620000000000     0.33590000000000
C6     C      0.58140000000000     0.21620000000000     0.16410000000000
