data_default
_cell_volume           742.867345
_symmetry_space_group_name_H-M 'P 1'
_symmetry_Int_Tables_number 1
loop_
_symmetry_equiv_pos_site_id
_symmetry_equiv_pos_as_xyz
1 x,y,z
_cell_length_a        13.3558800000
_cell_length_b        14.9869000000
_cell_length_c         3.7157600000
_cell_angle_alpha        90.0000
_cell_angle_beta        92.8051
_cell_angle_gamma        90.0000
_cell_formula_units_Z 1
loop_
_atom_site_label
_atom_site_type_symbol
_atom_site_fract_x
_atom_site_fract_y
_atom_site_fract_z
C1     C      0.99343000000000     0.27314000000000     0.79427000000000
C1     C      0.50657000000000     0.77314000000000     0.20573000000000
C1     C      0.00657000000000     0.72686000000000     0.20573000000000
C1     C      0.49343000000000     0.22686000000000     0.79427000000000
C2     C      0.97516000000000     0.36308000000000     0.75996000000000
C2     C      0.52484000000000     0.86308000000000     0.24004000000000
C2     C      0.02484000000000     0.63692000000000     0.24004000000000
C2     C      0.47516000000000     0.13692000000000     0.75996000000000
C3     C      0.88516000000000     0.39580000000000     0.62135000000000
C3     C      0.61484000000000     0.89580000000000     0.37865000000000
C3     C      0.11484000000000     0.60420000000000     0.37865000000000
C3     C      0.38516000000000     0.10420000000000     0.62135000000000
C4     C      0.81093000000000     0.33585000000000     0.51341000000000
C4     C      0.68907000000000     0.83585000000000     0.48659000000000
C4     C      0.18907000000000     0.66415000000000     0.48659000000000
C4     C      0.31093000000000     0.16415000000000     0.51341000000000
C5     C      0.82622000000000     0.24424000000000     0.54331000000000
C5     C      0.67378000000000     0.74424000000000     0.45669000000000
C5     C      0.17378000000000     0.75576000000000     0.45669000000000
C5     C      0.32622000000000     0.25576000000000     0.54331000000000
C6     C      0.91846000000000     0.21403000000000     0.68517000000000
C6     C      0.58154000000000     0.71403000000000     0.31483000000000
C6     C      0.08154000000000     0.78597000000000     0.31483000000000
C6     C      0.41846000000000     0.28597000000000     0.68517000000000
H7     H      0.06445000000000     0.24980000000000     0.90349000000000
H7     H      0.43555000000000     0.74980000000000     0.09651000000000
H7     H      0.93555000000000     0.75020000000000     0.09651000000000
H7     H      0.56445000000000     0.25020000000000     0.90349000000000
H8     H      0.87331000000000     0.46635000000000     0.59822000000000
H8     H      0.62669000000000     0.96635000000000     0.40178000000000
H8     H      0.12669000000000     0.53365000000000     0.40178000000000
H8     H      0.37331000000000     0.03365000000000     0.59822000000000
CL9    Cl     0.73306000000000     0.16992000000000     0.40778000000000
CL9    Cl     0.76694000000000     0.66992000000000     0.59222000000000
CL9    Cl     0.26694000000000     0.83008000000000     0.59222000000000
CL9    Cl     0.23306000000000     0.33008000000000     0.40778000000000
F10    F      0.04654000000000     0.42004000000000     0.86384000000000
F10    F      0.45346000000000     0.92004000000000     0.13616000000000
F10    F      0.95346000000000     0.57996000000000     0.13616000000000
F10    F      0.54654000000000     0.07996000000000     0.86384000000000
BR11   Br     0.68860000000000     0.38343000000000     0.32476000000000
BR11   Br     0.81140000000000     0.88343000000000     0.67524000000000
BR11   Br     0.31140000000000     0.61657000000000     0.67524000000000
BR11   Br     0.18860000000000     0.11657000000000     0.32476000000000
BR12   Br     0.94652000000000     0.09123000000000     0.73671000000000
BR12   Br     0.55348000000000     0.59123000000000     0.26329000000000
BR12   Br     0.05348000000000     0.90877000000000     0.26329000000000
BR12   Br     0.44652000000000     0.40877000000000     0.73671000000000
