data_default
_cell_volume           741.547271
_symmetry_space_group_name_H-M 'P 1'
_symmetry_Int_Tables_number 1
loop_
_symmetry_equiv_pos_site_id
_symmetry_equiv_pos_as_xyz
1 x,y,z
_cell_length_a         3.7250000000
_cell_length_b        13.4630000000
_cell_length_c        14.9760000000
_cell_angle_alpha        90.0000
_cell_angle_beta        99.1200
_cell_angle_gamma        90.0000
_cell_formula_units_Z 1
loop_
_atom_site_label
_atom_site_type_symbol
_atom_site_fract_x
_atom_site_fract_y
_atom_site_fract_z
C1     C      0.56982000000000     0.28636000000000     0.65770000000000
C1     C      0.43018000000000     0.71364000000000     0.34230000000000
C1     C      0.93018000000000     0.78636000000000     0.84230000000000
C1     C      0.06982000000000     0.21364000000000     0.15770000000000
C2     C      0.47141000000000     0.36471000000000     0.59804000000000
C2     C      0.52859000000000     0.63529000000000     0.40196000000000
C2     C      0.02859000000000     0.86471000000000     0.90196000000000
C2     C      0.97141000000000     0.13529000000000     0.09804000000000
C3     C      0.40129000000000     0.45670000000000     0.63333000000000
C3     C      0.59871000000000     0.54330000000000     0.36667000000000
C3     C      0.09871000000000     0.95670000000000     0.86667000000000
C3     C      0.90129000000000     0.04330000000000     0.13333000000000
C4     C      0.42604000000000     0.47293000000000     0.72559000000000
C4     C      0.57396000000000     0.52707000000000     0.27441000000000
C4     C      0.07396000000000     0.97293000000000     0.77441000000000
C4     C      0.92604000000000     0.02707000000000     0.22559000000000
C5     C      0.52478000000000     0.39382000000000     0.78435000000000
C5     C      0.47522000000000     0.60618000000000     0.21565000000000
C5     C      0.97522000000000     0.89382000000000     0.71565000000000
C5     C      0.02478000000000     0.10618000000000     0.28435000000000
C6     C      0.59824000000000     0.29940000000000     0.75162000000000
C6     C      0.40176000000000     0.70060000000000     0.24838000000000
C6     C      0.90176000000000     0.79940000000000     0.74838000000000
C6     C      0.09824000000000     0.20060000000000     0.25162000000000
F7     F      0.30623000000000     0.53263000000000     0.57624000000000
F7     F      0.69377000000000     0.46737000000000     0.42376000000000
F7     F      0.19377000000000     0.03263000000000     0.92376000000000
F7     F      0.80623000000000     0.96737000000000     0.07624000000000
Br8    Br     0.55671000000000     0.41795000000000     0.91028000000000
Br8    Br     0.44329000000000     0.58205000000000     0.08972000000000
Br8    Br     0.94329000000000     0.91795000000000     0.58972000000000
Br8    Br     0.05671000000000     0.08205000000000     0.41028000000000
Cl9    Cl     0.72117000000000     0.20123000000000     0.82545000000000
Cl9    Cl     0.27883000000000     0.79877000000000     0.17455000000000
Cl9    Cl     0.77883000000000     0.70123000000000     0.67455000000000
Cl9    Cl     0.22117000000000     0.29877000000000     0.32545000000000
Br10   Br     0.66432000000000     0.16125000000000     0.60770000000000
Br10   Br     0.33568000000000     0.83875000000000     0.39230000000000
Br10   Br     0.83568000000000     0.66125000000000     0.89230000000000
Br10   Br     0.16432000000000     0.33875000000000     0.10770000000000
H11    H      0.36958000000000     0.54559000000000     0.75098000000000
H11    H      0.63042000000000     0.45441000000000     0.24902000000000
H11    H      0.13042000000000     0.04559000000000     0.74902000000000
H11    H      0.86958000000000     0.95441000000000     0.25098000000000
H12    H      0.44970000000000     0.35448000000000     0.52571000000000
H12    H      0.55030000000000     0.64552000000000     0.47429000000000
H12    H      0.05030000000000     0.85448000000000     0.97429000000000
H12    H      0.94970000000000     0.14552000000000     0.02571000000000
