data_default
_cell_volume          1535.446694
_symmetry_space_group_name_H-M 'P 1'
_symmetry_Int_Tables_number 1
loop_
_symmetry_equiv_pos_site_id
_symmetry_equiv_pos_as_xyz
1 x,y,z
_cell_length_a        14.1219000000
_cell_length_b         7.1320000000
_cell_length_c        15.2451000000
_cell_angle_alpha        90.0000
_cell_angle_beta        90.0000
_cell_angle_gamma        90.0000
_cell_formula_units_Z 1
loop_
_atom_site_label
_atom_site_type_symbol
_atom_site_fract_x
_atom_site_fract_y
_atom_site_fract_z
Br1    Br     0.34062000000000     0.38040000000000     0.85531000000000
Br1    Br     0.15938000000000     0.61960000000000     0.35531000000000
Br1    Br     0.84062000000000     0.11960000000000     0.14469000000000
Br1    Br     0.65938000000000     0.88040000000000     0.64469000000000
Br1    Br     0.65938000000000     0.61960000000000     0.14469000000000
Br1    Br     0.84062000000000     0.38040000000000     0.64469000000000
Br1    Br     0.15938000000000     0.88040000000000     0.85531000000000
Br1    Br     0.34062000000000     0.11960000000000     0.35531000000000
Br2    Br     0.08009000000000     0.36722000000000     0.14620000000000
Br2    Br     0.41991000000000     0.63278000000000     0.64620000000000
Br2    Br     0.58009000000000     0.13278000000000     0.85380000000000
Br2    Br     0.91991000000000     0.86722000000000     0.35380000000000
Br2    Br     0.91991000000000     0.63278000000000     0.85380000000000
Br2    Br     0.58009000000000     0.36722000000000     0.35380000000000
Br2    Br     0.41991000000000     0.86722000000000     0.14620000000000
Br2    Br     0.08009000000000     0.13278000000000     0.64620000000000
Cl1    Cl     0.12511000000000     0.37748000000000     0.93528000000000
Cl1    Cl     0.37489000000000     0.62252000000000     0.43528000000000
Cl1    Cl     0.62511000000000     0.12252000000000     0.06472000000000
Cl1    Cl     0.87489000000000     0.87748000000000     0.56472000000000
Cl1    Cl     0.87489000000000     0.62252000000000     0.06472000000000
Cl1    Cl     0.62511000000000     0.37748000000000     0.56472000000000
Cl1    Cl     0.37489000000000     0.87748000000000     0.93528000000000
Cl1    Cl     0.12511000000000     0.12252000000000     0.43528000000000
F1     F      0.44475000000000     0.36371000000000     0.18079000000000
F1     F      0.05525000000000     0.63629000000000     0.68079000000000
F1     F      0.94475000000000     0.13629000000000     0.81921000000000
F1     F      0.55525000000000     0.86371000000000     0.31921000000000
F1     F      0.55525000000000     0.63629000000000     0.81921000000000
F1     F      0.94475000000000     0.36371000000000     0.31921000000000
F1     F      0.05525000000000     0.86371000000000     0.18079000000000
F1     F      0.44475000000000     0.13629000000000     0.68079000000000
C1     C      0.21980000000000     0.37340000000000     0.00801000000000
C1     C      0.28020000000000     0.62660000000000     0.50801000000000
C1     C      0.71980000000000     0.12660000000000     0.99199000000000
C1     C      0.78020000000000     0.87340000000000     0.49199000000000
C1     C      0.78020000000000     0.62660000000000     0.99199000000000
C1     C      0.71980000000000     0.37340000000000     0.49199000000000
C1     C      0.28020000000000     0.87340000000000     0.00801000000000
C1     C      0.21980000000000     0.12660000000000     0.50801000000000
C2     C      0.31357000000000     0.37447000000000     0.97729000000000
C2     C      0.18643000000000     0.62553000000000     0.47729000000000
C2     C      0.81357000000000     0.12553000000000     0.02271000000000
C2     C      0.68643000000000     0.87447000000000     0.52271000000000
C2     C      0.68643000000000     0.62553000000000     0.02271000000000
C2     C      0.81357000000000     0.37447000000000     0.52271000000000
C2     C      0.18643000000000     0.87447000000000     0.97729000000000
C2     C      0.31357000000000     0.12553000000000     0.47729000000000
C3     C      0.37152000000000     0.36687000000000     0.12454000000000
C3     C      0.12848000000000     0.63313000000000     0.62454000000000
C3     C      0.87152000000000     0.13313000000000     0.87546000000000
C3     C      0.62848000000000     0.86687000000000     0.37546000000000
C3     C      0.62848000000000     0.63313000000000     0.87546000000000
C3     C      0.87152000000000     0.36687000000000     0.37546000000000
C3     C      0.12848000000000     0.86687000000000     0.12454000000000
C3     C      0.37152000000000     0.13313000000000     0.62454000000000
C4     C      0.20453000000000     0.36895000000000     0.09903000000000
C4     C      0.29547000000000     0.63105000000000     0.59903000000000
C4     C      0.70453000000000     0.13105000000000     0.90097000000000
C4     C      0.79547000000000     0.86895000000000     0.40097000000000
C4     C      0.79547000000000     0.63105000000000     0.90097000000000
C4     C      0.70453000000000     0.36895000000000     0.40097000000000
C4     C      0.29547000000000     0.86895000000000     0.09903000000000
C4     C      0.20453000000000     0.13105000000000     0.59903000000000
C5     C      0.38990000000000     0.37122000000000     0.03516000000000
C5     C      0.11010000000000     0.62878000000000     0.53516000000000
C5     C      0.88990000000000     0.12878000000000     0.96484000000000
C5     C      0.61010000000000     0.87122000000000     0.46484000000000
C5     C      0.61010000000000     0.62878000000000     0.96484000000000
C5     C      0.88990000000000     0.37122000000000     0.46484000000000
C5     C      0.11010000000000     0.87122000000000     0.03516000000000
C5     C      0.38990000000000     0.12878000000000     0.53516000000000
C6     C      0.28007000000000     0.36566000000000     0.15780000000000
C6     C      0.21993000000000     0.63434000000000     0.65780000000000
C6     C      0.78007000000000     0.13434000000000     0.84220000000000
C6     C      0.71993000000000     0.86566000000000     0.34220000000000
C6     C      0.71993000000000     0.63434000000000     0.84220000000000
C6     C      0.78007000000000     0.36566000000000     0.34220000000000
C6     C      0.21993000000000     0.86566000000000     0.15780000000000
C6     C      0.28007000000000     0.13434000000000     0.65780000000000
H1     H      0.46207000000000     0.37205000000000     0.01131000000000
H1     H      0.03793000000000     0.62795000000000     0.51131000000000
H1     H      0.96207000000000     0.12795000000000     0.98869000000000
H1     H      0.53793000000000     0.87205000000000     0.48869000000000
H1     H      0.53793000000000     0.62795000000000     0.98869000000000
H1     H      0.96207000000000     0.37205000000000     0.48869000000000
H1     H      0.03793000000000     0.87205000000000     0.01131000000000
H1     H      0.46207000000000     0.12795000000000     0.51131000000000
H2     H      0.26809000000000     0.36224000000000     0.22789000000000
H2     H      0.23191000000000     0.63776000000000     0.72789000000000
H2     H      0.76809000000000     0.13776000000000     0.77211000000000
H2     H      0.73191000000000     0.86224000000000     0.27211000000000
H2     H      0.73191000000000     0.63776000000000     0.77211000000000
H2     H      0.76809000000000     0.36224000000000     0.27211000000000
H2     H      0.23191000000000     0.86224000000000     0.22789000000000
H2     H      0.26809000000000     0.13776000000000     0.72789000000000
