data_default
_cell_volume          1210.232436
_symmetry_space_group_name_H-M 'P 1'
_symmetry_Int_Tables_number 1
loop_
_symmetry_equiv_pos_site_id
_symmetry_equiv_pos_as_xyz
1 x,y,z
_cell_length_a        12.4000000000
_cell_length_b         6.1000000000
_cell_length_c        15.9999000000
_cell_angle_alpha        90.0000
_cell_angle_beta        90.0000
_cell_angle_gamma        90.0000
_cell_formula_units_Z 1
loop_
_atom_site_label
_atom_site_type_symbol
_atom_site_fract_x
_atom_site_fract_y
_atom_site_fract_z
Br1    Br     0.43469000000000     0.44795000000000     0.16059000000000
Br1    Br     0.43469000000000     0.55205000000000     0.66059000000000
Cl1    Cl     0.22360000000000     0.13377000000000     0.18759000000000
Cl1    Cl     0.22360000000000     0.86623000000000     0.68759000000000
Br2    Br     0.99089000000000     0.23802000000000     0.09975000000000
Br2    Br     0.99089000000000     0.76198000000000     0.59975000000000
H1     H      0.02772000000000     0.64082000000000     0.00420000000000
H1     H      0.02772000000000     0.35918000000000     0.50420000000000
F1     F      0.18309000000000     0.91626000000000     0.97280000000000
F1     F      0.18309000000000     0.08374000000000     0.47280000000000
H2     H      0.35889000000000     0.79745000000000     0.04962000000000
H2     H      0.35889000000000     0.20255000000000     0.54962000000000
C1     C      0.30093000000000     0.50595000000000     0.11059000000000
C1     C      0.30093000000000     0.49405000000000     0.61059000000000
C2     C      0.21140000000000     0.36968000000000     0.12284000000000
C2     C      0.21140000000000     0.63032000000000     0.62284000000000
C3     C      0.11238000000000     0.41679000000000     0.08474000000000
C3     C      0.11238000000000     0.58321000000000     0.58474000000000
C4     C      0.10344000000000     0.60131000000000     0.03425000000000
C4     C      0.10344000000000     0.39869000000000     0.53425000000000
C5     C      0.19239000000000     0.73696000000000     0.02202000000000
C5     C      0.19239000000000     0.26304000000000     0.52202000000000
C6     C      0.29078000000000     0.68993000000000     0.05993000000000
C6     C      0.29078000000000     0.31007000000000     0.55993000000000
