data_default
_cell_volume           827.690342
_symmetry_space_group_name_H-M 'P 1'
_symmetry_Int_Tables_number 1
loop_
_symmetry_equiv_pos_site_id
_symmetry_equiv_pos_as_xyz
1 x,y,z
_cell_length_a        10.2294000000
_cell_length_b         7.9063100000
_cell_length_c        10.9388000000
_cell_angle_alpha        73.6645
_cell_angle_beta        90.0199
_cell_angle_gamma        77.6745
_cell_formula_units_Z 1
loop_
_atom_site_label
_atom_site_type_symbol
_atom_site_fract_x
_atom_site_fract_y
_atom_site_fract_z
C1     C      0.36802000000000     0.31322000000000     0.42737000000000
C1     C      0.63198000000000     0.68678000000000     0.57263000000000
C2     C      0.47489000000000     0.28199000000000     0.35205000000000
C2     C      0.52511000000000     0.71801000000000     0.64795000000000
C3     C      0.49460000000000     0.13270000000000     0.30429000000000
C3     C      0.50540000000000     0.86730000000000     0.69571000000000
C4     C      0.40705000000000     0.01432000000000     0.33111000000000
C4     C      0.59295000000000     0.98568000000000     0.66889000000000
C5     C      0.30000000000000     0.04772000000000     0.40738000000000
C5     C      0.70000000000000     0.95228000000000     0.59262000000000
C6     C      0.28058000000000     0.19685000000000     0.45504000000000
C6     C      0.71942000000000     0.80315000000000     0.54496000000000
H1     H      0.54279000000000     0.37370000000000     0.33230000000000
H1     H      0.45721000000000     0.62630000000000     0.66770000000000
H2     H      0.19826000000000     0.22250000000000     0.51475000000000
H2     H      0.80174000000000     0.77750000000000     0.48525000000000
Cl1    Cl     0.43186000000000     0.82813000000000     0.27260000000000
Cl1    Cl     0.56814000000000     0.17187000000000     0.72740000000000
F1     F      0.35037000000000     0.45424000000000     0.47572000000000
F1     F      0.64963000000000     0.54576000000000     0.52428000000000
Br1    Br     0.17975000000000     0.88985000000000     0.45256000000000
Br1    Br     0.82025000000000     0.11015000000000     0.54744000000000
Br2    Br     0.64493000000000     0.09235000000000     0.20523000000000
Br2    Br     0.35507000000000     0.90765000000000     0.79477000000000
C1     C      0.03893000000000     0.16323000000000     0.12932000000000
C1     C      0.96107000000000     0.83677000000000     0.87068000000000
C2     C      0.98678000000000     0.27893000000000     0.20103000000000
C2     C      0.01322000000000     0.72107000000000     0.79897000000000
C3     C      0.04346000000000     0.42499000000000     0.19981000000000
C3     C      0.95654000000000     0.57501000000000     0.80019000000000
C4     C      0.15197000000000     0.45781000000000     0.12529000000000
C4     C      0.84803000000000     0.54219000000000     0.87471000000000
C5     C      0.20291000000000     0.34010000000000     0.05306000000000
C5     C      0.79709000000000     0.65990000000000     0.94694000000000
C6     C      0.14703000000000     0.19280000000000     0.05569000000000
C6     C      0.85297000000000     0.80720000000000     0.94431000000000
H1     H      0.90232000000000     0.25375000000000     0.25800000000000
H1     H      0.09768000000000     0.74625000000000     0.74200000000000
H2     H      0.18647000000000     0.10099000000000     0.00020000000000
H2     H      0.81353000000000     0.89901000000000     0.99980000000000
Cl1    Cl     0.22145000000000     0.64100000000000     0.12207000000000
Cl1    Cl     0.77855000000000     0.35900000000000     0.87793000000000
F1     F      0.98486000000000     0.02195000000000     0.13199000000000
F1     F      0.01514000000000     0.97805000000000     0.86801000000000
Br1    Br     0.34836000000000     0.37587000000000     0.94768000000000
Br1    Br     0.65164000000000     0.62413000000000     0.05232000000000
Br2    Br     0.96868000000000     0.57552000000000     0.30237000000000
Br2    Br     0.03132000000000     0.42448000000000     0.69763000000000
