data_default
_cell_volume           793.749829
_symmetry_space_group_name_H-M 'P 1'
_symmetry_Int_Tables_number 1
loop_
_symmetry_equiv_pos_site_id
_symmetry_equiv_pos_as_xyz
1 x,y,z
_cell_length_a         3.9680000000
_cell_length_b        13.9862000000
_cell_length_c        14.9675000000
_cell_angle_alpha        90.0000
_cell_angle_beta        72.8568
_cell_angle_gamma        90.0000
_cell_formula_units_Z 1
loop_
_atom_site_type_symbol
_atom_site_fract_x
_atom_site_fract_y
_atom_site_fract_z
 C      0.00480000000000     0.23152700000000     0.74522100000000
 C      0.49520000000000     0.73152700000000     0.75477900000000
 C      0.99520000000000     0.76847300000000     0.25477900000000
 C      0.50480000000000     0.26847300000000     0.24522100000000
 C      0.87436000000000     0.37815600000000     0.87724600000000
 C      0.62564000000000     0.87815600000000     0.62275400000000
 C      0.12564000000000     0.62184400000000     0.12275400000000
 C      0.37436000000000     0.12184400000000     0.37724600000000
 C      0.03221000000000     0.21573400000000     0.83563300000000
 C      0.46779000000000     0.71573400000000     0.66436700000000
 C      0.96779000000000     0.78426600000000     0.16436700000000
 C      0.53221000000000     0.28426600000000     0.33563300000000
 C      0.96745800000000     0.28864300000000     0.90213400000000
 C      0.53254200000000     0.78864300000000     0.59786600000000
 C      0.03254200000000     0.71135700000000     0.09786600000000
 C      0.46745800000000     0.21135700000000     0.40213400000000
 C      0.90957000000000     0.32357200000000     0.72346300000000
 C      0.59043000000000     0.82357200000000     0.77653700000000
 C      0.09043000000000     0.67642800000000     0.27653700000000
 C      0.40957000000000     0.17642800000000     0.22346300000000
 C      0.84381400000000     0.39736800000000     0.78906000000000
 C      0.65618600000000     0.89736800000000     0.71094000000000
 C      0.15618600000000     0.60263200000000     0.21094000000000
 C      0.34381400000000     0.10263200000000     0.28906000000000
 F      0.81118600000000     0.44918700000000     0.94119500000000
 F      0.68881400000000     0.94918700000000     0.55880500000000
 F      0.18881400000000     0.55081300000000     0.05880500000000
 F      0.31118600000000     0.05081300000000     0.44119500000000
 Cl     0.08531000000000     0.14101400000000     0.66373400000000
 Cl     0.41469000000000     0.64101400000000     0.83626600000000
 Cl     0.91469000000000     0.85898600000000     0.33626600000000
 Cl     0.58531000000000     0.35898600000000     0.16373400000000
 H      0.98871100000000     0.27631700000000     0.97177500000000
 H      0.51128900000000     0.77631700000000     0.52822500000000
 H      0.01128900000000     0.72368300000000     0.02822500000000
 H      0.48871100000000     0.22368300000000     0.47177500000000
 H      0.77047700000000     0.46823700000000     0.77213000000000
 H      0.72952300000000     0.96823700000000     0.72787000000000
 H      0.22952300000000     0.53176300000000     0.22787000000000
 H      0.27047700000000     0.03176300000000     0.27213000000000
 Br     0.15878000000000     0.09432690000000     0.87199400000000
 Br     0.34122000000000     0.59432690000000     0.62800600000000
 Br     0.84122000000000     0.90567310000000     0.12800600000000
 Br     0.65878000000000     0.40567310000000     0.37199400000000
 Br     0.86543500000000     0.35228700000000     0.60365500000000
 Br     0.63456500000000     0.85228700000000     0.89634500000000
 Br     0.13456500000000     0.64771300000000     0.39634500000000
 Br     0.36543500000000     0.14771300000000     0.10365500000000
