data_default
_cell_volume           389.398599
_symmetry_space_group_name_H-M 'P 1'
_symmetry_Int_Tables_number 1
loop_
_symmetry_equiv_pos_site_id
_symmetry_equiv_pos_as_xyz
1 x,y,z
_cell_length_a         7.9509000000
_cell_length_b        11.4832000000
_cell_length_c         9.1399000000
_cell_angle_alpha        80.8605
_cell_angle_beta       101.5500
_cell_angle_gamma        35.3617
_cell_formula_units_Z 1
loop_
_atom_site_label
_atom_site_type_symbol
_atom_site_fract_x
_atom_site_fract_y
_atom_site_fract_z
C1     C      0.96313760000000     0.37780100000000     0.87268800000000
C1     C      0.03686240000000     0.62219900000000     0.12731200000000
C2     C      0.23527000000000     0.29777600000000     0.91768100000000
C2     C      0.76473000000000     0.70222400000000     0.08231900000000
C3     C      0.50115100000000     0.14399800000000     0.10247000000000
C3     C      0.49884900000000     0.85600200000000     0.89753000000000
C4     C      0.49787700000000     0.07185470000000     0.23813000000000
C4     C      0.50212300000000     0.92814530000000     0.76187000000000
C5     C      0.22352400000000     0.15581600000000     0.18664000000000
C5     C      0.77647600000000     0.84418400000000     0.81336000000000
C6     C      0.95474110000000     0.30791000000000     0.00610000000000
C6     C      0.04525890000000     0.69209000000000     0.99390000000000
BR1    Br     0.59344400000000     0.58546100000000     0.62721100000000
BR1    Br     0.40655600000000     0.41453900000000     0.37278900000000
BR3    Br     0.87831300000000     0.02711230000000     0.17596000000000
BR3    Br     0.12168700000000     0.97288770000000     0.82404000000000
CL2    Cl     0.24243800000000     0.38540900000000     0.75167600000000
CL2    Cl     0.75756200000000     0.61459100000000     0.24832400000000
F5     F      0.21779400000000     0.08707390000000     0.31692000000000
F5     F      0.78220600000000     0.91292610000000     0.68308000000000
H4     H      0.70326100000000     0.95360070000000     0.37987000000000
H4     H      0.29673900000000     0.04639930000000     0.62013000000000
H6     H      0.74478600000000     0.37013100000000     0.97049000000000
H6     H      0.25521400000000     0.62986900000000     0.02951000000000
