data_default
_cell_volume           755.100062
_symmetry_space_group_name_H-M 'P 1'
_symmetry_Int_Tables_number 1
loop_
_symmetry_equiv_pos_site_id
_symmetry_equiv_pos_as_xyz
1 x,y,z
_cell_length_a         7.6730000000
_cell_length_b         7.7550000000
_cell_length_c        13.3620000000
_cell_angle_alpha        90.0000
_cell_angle_beta       108.2500
_cell_angle_gamma        90.0000
_cell_formula_units_Z 1
loop_
_atom_site_label
_atom_site_type_symbol
_atom_site_fract_x
_atom_site_fract_y
_atom_site_fract_z
C1     C      0.85260000000000     0.13610000000000     0.08560000000000
C1     C      0.14740000000000     0.86390000000000     0.91440000000000
C1     C      0.14740000000000     0.63610000000000     0.41440000000000
C1     C      0.85260000000000     0.36390000000000     0.58560000000000
C2     C      0.78570000000000     0.96900000000000     0.08700000000000
C2     C      0.21430000000000     0.03100000000000     0.91300000000000
C2     C      0.21430000000000     0.46900000000000     0.41300000000000
C2     C      0.78570000000000     0.53100000000000     0.58700000000000
C3     C      0.91110000000000     0.83760000000000     0.12700000000000
C3     C      0.08890000000000     0.16240000000000     0.87300000000000
C3     C      0.08890000000000     0.33760000000000     0.37300000000000
C3     C      0.91110000000000     0.66240000000000     0.62700000000000
C4     C      0.09860000000000     0.86600000000000     0.16590000000000
C4     C      0.90140000000000     0.13400000000000     0.83410000000000
C4     C      0.90140000000000     0.36600000000000     0.33410000000000
C4     C      0.09860000000000     0.63400000000000     0.66590000000000
C5     C      0.16320000000000     0.03410000000000     0.16420000000000
C5     C      0.83680000000000     0.96590000000000     0.83580000000000
C5     C      0.83680000000000     0.53410000000000     0.33580000000000
C5     C      0.16320000000000     0.46590000000000     0.66420000000000
C6     C      0.04190000000000     0.17150000000000     0.12420000000000
C6     C      0.95810000000000     0.82850000000000     0.87580000000000
C6     C      0.95810000000000     0.67150000000000     0.37580000000000
C6     C      0.04190000000000     0.32850000000000     0.62420000000000
H7     H      0.64040000000000     0.94170000000000     0.05730000000000
H7     H      0.35960000000000     0.05830000000000     0.94270000000000
H7     H      0.35960000000000     0.44170000000000     0.44270000000000
H7     H      0.64040000000000     0.55830000000000     0.55730000000000
H8     H      0.19200000000000     0.76040000000000     0.19660000000000
H8     H      0.80800000000000     0.23960000000000     0.80340000000000
H8     H      0.80800000000000     0.26040000000000     0.30340000000000
H8     H      0.19200000000000     0.73960000000000     0.69660000000000
Cl9    Cl     0.12270000000000     0.37810000000000     0.12230000000000
Cl9    Cl     0.87730000000000     0.62190000000000     0.87770000000000
Cl9    Cl     0.87730000000000     0.87810000000000     0.37770000000000
Cl9    Cl     0.12270000000000     0.12190000000000     0.62230000000000
F10    F      0.84700000000000     0.67440000000000     0.12860000000000
F10    F      0.15300000000000     0.32560000000000     0.87140000000000
F10    F      0.15300000000000     0.17440000000000     0.37140000000000
F10    F      0.84700000000000     0.82560000000000     0.62860000000000
Br11   Br     0.41920000000000     0.07030000000000     0.21730000000000
Br11   Br     0.58080000000000     0.92970000000000     0.78270000000000
Br11   Br     0.58080000000000     0.57030000000000     0.28270000000000
Br11   Br     0.41920000000000     0.42970000000000     0.71730000000000
Br12   Br     0.68030000000000     0.31330000000000     0.03060000000000
Br12   Br     0.31970000000000     0.68670000000000     0.96940000000000
Br12   Br     0.31970000000000     0.81330000000000     0.46940000000000
Br12   Br     0.68030000000000     0.18670000000000     0.53060000000000
