data_default
_cell_volume          1685.786927
_symmetry_space_group_name_H-M 'P 1'
_symmetry_Int_Tables_number 1
loop_
_symmetry_equiv_pos_site_id
_symmetry_equiv_pos_as_xyz
1 x,y,z
_cell_length_a        13.1039000000
_cell_length_b        12.2662000000
_cell_length_c        10.5143000000
_cell_angle_alpha        90.0000
_cell_angle_beta        94.0545
_cell_angle_gamma        90.0000
_cell_formula_units_Z 1
loop_
_atom_site_label
_atom_site_type_symbol
_atom_site_fract_x
_atom_site_fract_y
_atom_site_fract_z
C1     C      0.62883000000000     0.24857000000000     0.67337000000000
C1     C      0.12883000000000     0.74857000000000     0.67337000000000
C1     C      0.37117000000000     0.24857000000000     0.82663000000000
C1     C      0.87117000000000     0.74857000000000     0.82663000000000
C1     C      0.37117000000000     0.75143000000000     0.32663000000000
C1     C      0.87117000000000     0.25143000000000     0.32663000000000
C1     C      0.62883000000000     0.75143000000000     0.17337000000000
C1     C      0.12883000000000     0.25143000000000     0.17337000000000
C2     C      0.62251000000000     0.36838000000000     0.50056000000000
C2     C      0.12251000000000     0.86838000000000     0.50056000000000
C2     C      0.37749000000000     0.36838000000000     0.99944000000000
C2     C      0.87749000000000     0.86838000000000     0.99944000000000
C2     C      0.37749000000000     0.63162000000000     0.49944000000000
C2     C      0.87749000000000     0.13162000000000     0.49944000000000
C2     C      0.62251000000000     0.63162000000000     0.00056000000000
C2     C      0.12251000000000     0.13162000000000     0.00056000000000
N5     N      0.62289000000000     0.35188000000000     0.72094000000000
N5     N      0.12289000000000     0.85188000000000     0.72094000000000
N5     N      0.37711000000000     0.35188000000000     0.77906000000000
N5     N      0.87711000000000     0.85188000000000     0.77906000000000
N5     N      0.37711000000000     0.64812000000000     0.27906000000000
N5     N      0.87711000000000     0.14812000000000     0.27906000000000
N5     N      0.62289000000000     0.64812000000000     0.22094000000000
N5     N      0.12289000000000     0.14812000000000     0.22094000000000
N6     N      0.62847000000000     0.26113000000000     0.53941000000000
N6     N      0.12847000000000     0.76113000000000     0.53941000000000
N6     N      0.37153000000000     0.26113000000000     0.96059000000000
N6     N      0.87153000000000     0.76113000000000     0.96059000000000
N6     N      0.37153000000000     0.73887000000000     0.46059000000000
N6     N      0.87153000000000     0.23887000000000     0.46059000000000
N6     N      0.62847000000000     0.73887000000000     0.03941000000000
N6     N      0.12847000000000     0.23887000000000     0.03941000000000
C9     C      0.61842000000000     0.43532000000000     0.62265000000000
C9     C      0.11842000000000     0.93532000000000     0.62265000000000
C9     C      0.38158000000000     0.43532000000000     0.87735000000000
C9     C      0.88158000000000     0.93532000000000     0.87735000000000
C9     C      0.38158000000000     0.56468000000000     0.37735000000000
C9     C      0.88158000000000     0.06468000000000     0.37735000000000
C9     C      0.61842000000000     0.56468000000000     0.12265000000000
C9     C      0.11842000000000     0.06468000000000     0.12265000000000
O11    O      0.63358000000000     0.16155000000000     0.73096000000000
O11    O      0.13358000000000     0.66155000000000     0.73096000000000
O11    O      0.36642000000000     0.16155000000000     0.76904000000000
O11    O      0.86642000000000     0.66155000000000     0.76904000000000
O11    O      0.36642000000000     0.83845000000000     0.26904000000000
O11    O      0.86642000000000     0.33845000000000     0.26904000000000
O11    O      0.63358000000000     0.83845000000000     0.23096000000000
O11    O      0.13358000000000     0.33845000000000     0.23096000000000
O12    O      0.62085000000000     0.40276000000000     0.39113000000000
O12    O      0.12085000000000     0.90276000000000     0.39113000000000
O12    O      0.37915000000000     0.40276000000000     0.10887000000000
O12    O      0.87915000000000     0.90276000000000     0.10887000000000
O12    O      0.37915000000000     0.59724000000000     0.60887000000000
O12    O      0.87915000000000     0.09724000000000     0.60887000000000
O12    O      0.62085000000000     0.59724000000000     0.89113000000000
O12    O      0.12085000000000     0.09724000000000     0.89113000000000
H15    H      0.62195000000000     0.36459000000000     0.80645000000000
H15    H      0.12195000000000     0.86459000000000     0.80645000000000
H15    H      0.37805000000000     0.36459000000000     0.69355000000000
H15    H      0.87805000000000     0.86459000000000     0.69355000000000
H15    H      0.37805000000000     0.63541000000000     0.19355000000000
H15    H      0.87805000000000     0.13541000000000     0.19355000000000
H15    H      0.62195000000000     0.63541000000000     0.30645000000000
H15    H      0.12195000000000     0.13541000000000     0.30645000000000
H16    H      0.67779000000000     0.48646000000000     0.63110000000000
H16    H      0.17779000000000     0.98646000000000     0.63110000000000
H16    H      0.32221000000000     0.48646000000000     0.86890000000000
H16    H      0.82221000000000     0.98646000000000     0.86890000000000
H16    H      0.32221000000000     0.51354000000000     0.36890000000000
H16    H      0.82221000000000     0.01354000000000     0.36890000000000
H16    H      0.67779000000000     0.51354000000000     0.13110000000000
H16    H      0.17779000000000     0.01354000000000     0.13110000000000
H17    H      0.55373000000000     0.47853000000000     0.61969000000000
H17    H      0.05373000000000     0.97853000000000     0.61969000000000
H17    H      0.44627000000000     0.47853000000000     0.88031000000000
H17    H      0.94627000000000     0.97853000000000     0.88031000000000
H17    H      0.44627000000000     0.52147000000000     0.38031000000000
H17    H      0.94627000000000     0.02147000000000     0.38031000000000
H17    H      0.55373000000000     0.52147000000000     0.11969000000000
H17    H      0.05373000000000     0.02147000000000     0.11969000000000
H18    H      0.63188000000000     0.20283000000000     0.48538000000000
H18    H      0.13188000000000     0.70283000000000     0.48538000000000
H18    H      0.36812000000000     0.20283000000000     0.01462000000000
H18    H      0.86812000000000     0.70283000000000     0.01462000000000
H18    H      0.36812000000000     0.79717000000000     0.51462000000000
H18    H      0.86812000000000     0.29717000000000     0.51462000000000
H18    H      0.63188000000000     0.79717000000000     0.98538000000000
H18    H      0.13188000000000     0.29717000000000     0.98538000000000
C3     C      0.62202000000000     0.74754000000000     0.55293000000000
C3     C      0.12202000000000     0.24754000000000     0.55293000000000
C3     C      0.37798000000000     0.74754000000000     0.94707000000000
C3     C      0.87798000000000     0.24754000000000     0.94707000000000
C3     C      0.37798000000000     0.25246000000000     0.44707000000000
C3     C      0.87798000000000     0.75246000000000     0.44707000000000
C3     C      0.62202000000000     0.25246000000000     0.05293000000000
C3     C      0.12202000000000     0.75246000000000     0.05293000000000
C4     C      0.62704000000000     0.86536000000000     0.72754000000000
C4     C      0.12704000000000     0.36536000000000     0.72754000000000
C4     C      0.37296000000000     0.86536000000000     0.77246000000000
C4     C      0.87296000000000     0.36536000000000     0.77246000000000
C4     C      0.37296000000000     0.13464000000000     0.27246000000000
C4     C      0.87296000000000     0.63464000000000     0.27246000000000
C4     C      0.62704000000000     0.13464000000000     0.22754000000000
C4     C      0.12704000000000     0.63464000000000     0.22754000000000
N7     N      0.62567000000000     0.85153000000000     0.50683000000000
N7     N      0.12567000000000     0.35153000000000     0.50683000000000
N7     N      0.37433000000000     0.85153000000000     0.99317000000000
N7     N      0.87433000000000     0.35153000000000     0.99317000000000
N7     N      0.37433000000000     0.14847000000000     0.49317000000000
N7     N      0.87433000000000     0.64847000000000     0.49317000000000
N7     N      0.62567000000000     0.14847000000000     0.00683000000000
N7     N      0.12567000000000     0.64847000000000     0.00683000000000
N8     N      0.62295000000000     0.75848000000000     0.68712000000000
N8     N      0.12295000000000     0.25848000000000     0.68712000000000
N8     N      0.37705000000000     0.75848000000000     0.81288000000000
N8     N      0.87705000000000     0.25848000000000     0.81288000000000
N8     N      0.37705000000000     0.24152000000000     0.31288000000000
N8     N      0.87705000000000     0.74152000000000     0.31288000000000
N8     N      0.62295000000000     0.24152000000000     0.18712000000000
N8     N      0.12295000000000     0.74152000000000     0.18712000000000
C10    C      0.62909000000000     0.93384000000000     0.60638000000000
C10    C      0.12909000000000     0.43384000000000     0.60638000000000
C10    C      0.37091000000000     0.93384000000000     0.89362000000000
C10    C      0.87091000000000     0.43384000000000     0.89362000000000
C10    C      0.37091000000000     0.06616000000000     0.39362000000000
C10    C      0.87091000000000     0.56616000000000     0.39362000000000
C10    C      0.62909000000000     0.06616000000000     0.10638000000000
C10    C      0.12909000000000     0.56616000000000     0.10638000000000
O13    O      0.61862000000000     0.66114000000000     0.49406000000000
O13    O      0.11862000000000     0.16114000000000     0.49406000000000
O13    O      0.38138000000000     0.66114000000000     0.00594000000000
O13    O      0.88138000000000     0.16114000000000     0.00594000000000
O13    O      0.38138000000000     0.33886000000000     0.50594000000000
O13    O      0.88138000000000     0.83886000000000     0.50594000000000
O13    O      0.61862000000000     0.33886000000000     0.99406000000000
O13    O      0.11862000000000     0.83886000000000     0.99406000000000
O14    O      0.62869000000000     0.89844000000000     0.83752000000000
O14    O      0.12869000000000     0.39844000000000     0.83752000000000
O14    O      0.37131000000000     0.89844000000000     0.66248000000000
O14    O      0.87131000000000     0.39844000000000     0.66248000000000
O14    O      0.37131000000000     0.10156000000000     0.16248000000000
O14    O      0.87131000000000     0.60156000000000     0.16248000000000
O14    O      0.62869000000000     0.10156000000000     0.33752000000000
O14    O      0.12869000000000     0.60156000000000     0.33752000000000
H19    H      0.62584000000000     0.86528000000000     0.42148000000000
H19    H      0.12584000000000     0.36528000000000     0.42148000000000
H19    H      0.37416000000000     0.86528000000000     0.07852000000000
H19    H      0.87416000000000     0.36528000000000     0.07852000000000
H19    H      0.37416000000000     0.13472000000000     0.57852000000000
H19    H      0.87416000000000     0.63472000000000     0.57852000000000
H19    H      0.62584000000000     0.13472000000000     0.92148000000000
H19    H      0.12584000000000     0.63472000000000     0.92148000000000
H20    H      0.56872000000000     0.98370000000000     0.59922000000000
H20    H      0.06872000000000     0.48370000000000     0.59922000000000
H20    H      0.43128000000000     0.98370000000000     0.90078000000000
H20    H      0.93128000000000     0.48370000000000     0.90078000000000
H20    H      0.43128000000000     0.01630000000000     0.40078000000000
H20    H      0.93128000000000     0.51630000000000     0.40078000000000
H20    H      0.56872000000000     0.01630000000000     0.09922000000000
H20    H      0.06872000000000     0.51630000000000     0.09922000000000
H21    H      0.69291000000000     0.97851000000000     0.60941000000000
H21    H      0.19291000000000     0.47851000000000     0.60941000000000
H21    H      0.30709000000000     0.97851000000000     0.89059000000000
H21    H      0.80709000000000     0.47851000000000     0.89059000000000
H21    H      0.30709000000000     0.02149000000000     0.39059000000000
H21    H      0.80709000000000     0.52149000000000     0.39059000000000
H21    H      0.69291000000000     0.02149000000000     0.10941000000000
H21    H      0.19291000000000     0.52149000000000     0.10941000000000
H22    H      0.62099000000000     0.69945000000000     0.74034000000000
H22    H      0.12099000000000     0.19945000000000     0.74034000000000
H22    H      0.37901000000000     0.69945000000000     0.75966000000000
H22    H      0.87901000000000     0.19945000000000     0.75966000000000
H22    H      0.37901000000000     0.30055000000000     0.25966000000000
H22    H      0.87901000000000     0.80055000000000     0.25966000000000
H22    H      0.62099000000000     0.30055000000000     0.24034000000000
H22    H      0.12099000000000     0.80055000000000     0.24034000000000
