data_default
_cell_volume           839.231815
_symmetry_space_group_name_H-M 'P 1'
_symmetry_Int_Tables_number 1
loop_
_symmetry_equiv_pos_site_id
_symmetry_equiv_pos_as_xyz
1 x,y,z
_cell_length_a        12.5626000000
_cell_length_b        10.5639000000
_cell_length_c         6.3238000000
_cell_angle_alpha        90.0000
_cell_angle_beta        90.0000
_cell_angle_gamma        90.0000
_cell_formula_units_Z 1
loop_
_atom_site_label
_atom_site_type_symbol
_atom_site_fract_x
_atom_site_fract_y
_atom_site_fract_z
C78    C      0.12399000000000     0.92314000000000     0.35854000000000
C78    C      0.37601000000000     0.07686000000000     0.85854000000000
C78    C      0.87601000000000     0.42314000000000     0.14146000000000
C78    C      0.62399000000000     0.57686000000000     0.64146000000000
C78    C      0.87601000000000     0.07686000000000     0.64146000000000
C78    C      0.62399000000000     0.92314000000000     0.14146000000000
C78    C      0.12399000000000     0.57686000000000     0.85854000000000
C78    C      0.37601000000000     0.42314000000000     0.35854000000000
N79    N      0.12447000000000     0.04082000000000     0.43234000000000
N79    N      0.37553000000000     0.95918000000000     0.93234000000000
N79    N      0.87553000000000     0.54082000000000     0.06766000000000
N79    N      0.62447000000000     0.45918000000000     0.56766000000000
N79    N      0.87553000000000     0.95918000000000     0.56766000000000
N79    N      0.62447000000000     0.04082000000000     0.06766000000000
N79    N      0.12447000000000     0.45918000000000     0.93234000000000
N79    N      0.37553000000000     0.54082000000000     0.43234000000000
C80    C      0.12556000000000     0.13043000000000     0.26314000000000
C80    C      0.37444000000000     0.86957000000000     0.76314000000000
C80    C      0.87444000000000     0.63043000000000     0.23686000000000
C80    C      0.62556000000000     0.36957000000000     0.73686000000000
C80    C      0.87444000000000     0.86957000000000     0.73686000000000
C80    C      0.62556000000000     0.13043000000000     0.23686000000000
C80    C      0.12556000000000     0.36957000000000     0.76314000000000
C80    C      0.37444000000000     0.63043000000000     0.26314000000000
C81    C      0.12503000000000     0.04314000000000     0.08358000000000
C81    C      0.37497000000000     0.95686000000000     0.58358000000000
C81    C      0.87497000000000     0.54314000000000     0.41642000000000
C81    C      0.62503000000000     0.45686000000000     0.91642000000000
C81    C      0.87497000000000     0.95686000000000     0.91642000000000
C81    C      0.62503000000000     0.04314000000000     0.41642000000000
C81    C      0.12503000000000     0.45686000000000     0.58358000000000
C81    C      0.37497000000000     0.54314000000000     0.08358000000000
N82    N      0.12470000000000     0.92444000000000     0.15050000000000
N82    N      0.37530000000000     0.07556000000000     0.65050000000000
N82    N      0.87530000000000     0.42444000000000     0.34950000000000
N82    N      0.62470000000000     0.57556000000000     0.84950000000000
N82    N      0.87530000000000     0.07556000000000     0.84950000000000
N82    N      0.62470000000000     0.92444000000000     0.34950000000000
N82    N      0.12470000000000     0.57556000000000     0.65050000000000
N82    N      0.37530000000000     0.42444000000000     0.15050000000000
O83    O      0.12287000000000     0.82536000000000     0.46761000000000
O83    O      0.37713000000000     0.17464000000000     0.96761000000000
O83    O      0.87713000000000     0.32536000000000     0.03239000000000
O83    O      0.62287000000000     0.67464000000000     0.53239000000000
O83    O      0.87713000000000     0.17464000000000     0.53239000000000
O83    O      0.62287000000000     0.82536000000000     0.03239000000000
O83    O      0.12287000000000     0.67464000000000     0.96761000000000
O83    O      0.37713000000000     0.32536000000000     0.46761000000000
O84    O      0.12388000000000     0.07244000000000     0.89241000000000
O84    O      0.37612000000000     0.92756000000000     0.39241000000000
O84    O      0.87612000000000     0.57244000000000     0.60759000000000
O84    O      0.62388000000000     0.42756000000000     0.10759000000000
O84    O      0.87612000000000     0.92756000000000     0.10759000000000
O84    O      0.62388000000000     0.07244000000000     0.60759000000000
O84    O      0.12388000000000     0.42756000000000     0.39241000000000
O84    O      0.37612000000000     0.57244000000000     0.89241000000000
H85    H      0.12367000000000     0.05848000000000     0.58239000000000
H85    H      0.37633000000000     0.94152000000000     0.08239000000000
H85    H      0.87633000000000     0.55848000000000     0.91761000000000
H85    H      0.62367000000000     0.44152000000000     0.41761000000000
H85    H      0.87633000000000     0.94152000000000     0.41761000000000
H85    H      0.62367000000000     0.05848000000000     0.91761000000000
H85    H      0.12367000000000     0.44152000000000     0.08239000000000
H85    H      0.37633000000000     0.55848000000000     0.58239000000000
H86    H      0.19767000000000     0.18807000000000     0.26181000000000
H86    H      0.30233000000000     0.81193000000000     0.76181000000000
H86    H      0.80233000000000     0.68807000000000     0.23819000000000
H86    H      0.69767000000000     0.31193000000000     0.73819000000000
H86    H      0.80233000000000     0.81193000000000     0.73819000000000
H86    H      0.69767000000000     0.18807000000000     0.23819000000000
H86    H      0.19767000000000     0.31193000000000     0.76181000000000
H86    H      0.30233000000000     0.68807000000000     0.26181000000000
H87    H      0.05438000000000     0.18966000000000     0.26094000000000
H87    H      0.44562000000000     0.81034000000000     0.76094000000000
H87    H      0.94562000000000     0.68966000000000     0.23906000000000
H87    H      0.55438000000000     0.31034000000000     0.73906000000000
H87    H      0.94562000000000     0.81034000000000     0.73906000000000
H87    H      0.55438000000000     0.18966000000000     0.23906000000000
H87    H      0.05438000000000     0.31034000000000     0.76094000000000
H87    H      0.44562000000000     0.68966000000000     0.26094000000000
H88    H      0.12415000000000     0.84997000000000     0.06547000000000
H88    H      0.37585000000000     0.15003000000000     0.56547000000000
H88    H      0.87585000000000     0.34997000000000     0.43453000000000
H88    H      0.62415000000000     0.65003000000000     0.93453000000000
H88    H      0.87585000000000     0.15003000000000     0.93453000000000
H88    H      0.62415000000000     0.84997000000000     0.43453000000000
H88    H      0.12415000000000     0.65003000000000     0.56547000000000
H88    H      0.37585000000000     0.34997000000000     0.06547000000000
