data_default
_cell_volume           802.837089
_symmetry_space_group_name_H-M 'P 1'
_symmetry_Int_Tables_number 1
loop_
_symmetry_equiv_pos_site_id
_symmetry_equiv_pos_as_xyz
1 x,y,z
_cell_length_a         8.7450000000
_cell_length_b        12.2160000000
_cell_length_c         7.7220000000
_cell_angle_alpha        90.0000
_cell_angle_beta        76.7090
_cell_angle_gamma        90.0000
_cell_formula_units_Z 1
loop_
_atom_site_label
_atom_site_type_symbol
_atom_site_fract_x
_atom_site_fract_y
_atom_site_fract_z
C5     C      0.26325000000000     0.31488000000000     0.74556000000000
C5     C      0.76325000000000     0.81488000000000     0.74556000000000
C5     C      0.73675000000000     0.68512000000000     0.25444000000000
C5     C      0.23675000000000     0.18512000000000     0.25444000000000
C5     C      0.73675000000000     0.31488000000000     0.75444000000000
C5     C      0.23675000000000     0.81488000000000     0.75444000000000
C5     C      0.26325000000000     0.68512000000000     0.24556000000000
C5     C      0.76325000000000     0.18512000000000     0.24556000000000
H6     H      0.20791000000000     0.25908000000000     0.66876000000000
H6     H      0.70791000000000     0.75908000000000     0.66876000000000
H6     H      0.79209000000000     0.74092000000000     0.33124000000000
H6     H      0.29209000000000     0.24092000000000     0.33124000000000
H6     H      0.79209000000000     0.25908000000000     0.83124000000000
H6     H      0.29209000000000     0.75908000000000     0.83124000000000
H6     H      0.20791000000000     0.74092000000000     0.16876000000000
H6     H      0.70791000000000     0.24092000000000     0.16876000000000
H7     H      0.32691000000000     0.26799000000000     0.82567000000000
H7     H      0.82691000000000     0.76799000000000     0.82567000000000
H7     H      0.67309000000000     0.73201000000000     0.17433000000000
H7     H      0.17309000000000     0.23201000000000     0.17433000000000
H7     H      0.67309000000000     0.26799000000000     0.67433000000000
H7     H      0.17309000000000     0.76799000000000     0.67433000000000
H7     H      0.32691000000000     0.73201000000000     0.32567000000000
H7     H      0.82691000000000     0.23201000000000     0.32567000000000
N8     N      0.35676000000000     0.39941000000000     0.63978000000000
N8     N      0.85676000000000     0.89941000000000     0.63978000000000
N8     N      0.64324000000000     0.60059000000000     0.36022000000000
N8     N      0.14324000000000     0.10059000000000     0.36022000000000
N8     N      0.64324000000000     0.39941000000000     0.86022000000000
N8     N      0.14324000000000     0.89941000000000     0.86022000000000
N8     N      0.35676000000000     0.60059000000000     0.13978000000000
N8     N      0.85676000000000     0.10059000000000     0.13978000000000
H9     H      0.45347000000000     0.38329000000000     0.54321000000000
H9     H      0.95347000000000     0.88329000000000     0.54321000000000
H9     H      0.54653000000000     0.61671000000000     0.45679000000000
H9     H      0.04653000000000     0.11671000000000     0.45679000000000
H9     H      0.54653000000000     0.38329000000000     0.95679000000000
H9     H      0.04653000000000     0.88329000000000     0.95679000000000
H9     H      0.45347000000000     0.61671000000000     0.04321000000000
H9     H      0.95347000000000     0.11671000000000     0.04321000000000
C10    C      0.30303000000000     0.50217000000000     0.68456000000000
C10    C      0.80303000000000     0.00217000000000     0.68456000000000
C10    C      0.69697000000000     0.49783000000000     0.31544000000000
C10    C      0.19697000000000     0.99783000000000     0.31544000000000
C10    C      0.69697000000000     0.50217000000000     0.81544000000000
C10    C      0.19697000000000     0.00217000000000     0.81544000000000
C10    C      0.30303000000000     0.49783000000000     0.18456000000000
C10    C      0.80303000000000     0.99783000000000     0.18456000000000
O11    O      0.35750000000000     0.58955000000000     0.61821000000000
O11    O      0.85750000000000     0.08955000000000     0.61821000000000
O11    O      0.64250000000000     0.41045000000000     0.38179000000000
O11    O      0.14250000000000     0.91045000000000     0.38179000000000
O11    O      0.64250000000000     0.58955000000000     0.88179000000000
O11    O      0.14250000000000     0.08955000000000     0.88179000000000
O11    O      0.35750000000000     0.41045000000000     0.11821000000000
O11    O      0.85750000000000     0.91045000000000     0.11821000000000
N1     N      0.17196000000000     0.48985000000000     0.81818000000000
N1     N      0.67196000000000     0.98985000000000     0.81818000000000
N1     N      0.82804000000000     0.51015000000000     0.18182000000000
N1     N      0.32804000000000     0.01015000000000     0.18182000000000
N1     N      0.82804000000000     0.48985000000000     0.68182000000000
N1     N      0.32804000000000     0.98985000000000     0.68182000000000
N1     N      0.17196000000000     0.51015000000000     0.31818000000000
N1     N      0.67196000000000     0.01015000000000     0.31818000000000
H2     H      0.10743000000000     0.55396000000000     0.87625000000000
H2     H      0.60743000000000     0.05396000000000     0.87625000000000
H2     H      0.89257000000000     0.44604000000000     0.12375000000000
H2     H      0.39257000000000     0.94604000000000     0.12375000000000
H2     H      0.89257000000000     0.55396000000000     0.62375000000000
H2     H      0.39257000000000     0.05396000000000     0.62375000000000
H2     H      0.10743000000000     0.44604000000000     0.37625000000000
H2     H      0.60743000000000     0.94604000000000     0.37625000000000
C3     C      0.13668000000000     0.38419000000000     0.86669000000000
C3     C      0.63668000000000     0.88419000000000     0.86669000000000
C3     C      0.86332000000000     0.61581000000000     0.13331000000000
C3     C      0.36332000000000     0.11581000000000     0.13331000000000
C3     C      0.86332000000000     0.38419000000000     0.63331000000000
C3     C      0.36332000000000     0.88419000000000     0.63331000000000
C3     C      0.13668000000000     0.61581000000000     0.36669000000000
C3     C      0.63668000000000     0.11581000000000     0.36669000000000
O4     O      0.02445000000000     0.35009000000000     0.98278000000000
O4     O      0.52445000000000     0.85009000000000     0.98278000000000
O4     O      0.97555000000000     0.64991000000000     0.01722000000000
O4     O      0.47555000000000     0.14991000000000     0.01722000000000
O4     O      0.97555000000000     0.35009000000000     0.51722000000000
O4     O      0.47555000000000     0.85009000000000     0.51722000000000
O4     O      0.02445000000000     0.64991000000000     0.48278000000000
O4     O      0.52445000000000     0.14991000000000     0.48278000000000
