data_default
_cell_volume           405.042371
_symmetry_space_group_name_H-M 'P 1'
_symmetry_Int_Tables_number 1
loop_
_symmetry_equiv_pos_site_id
_symmetry_equiv_pos_as_xyz
1 x,y,z
_cell_length_a         6.1857200000
_cell_length_b        10.3725800000
_cell_length_c         6.3128200000
_cell_angle_alpha        90.0000
_cell_angle_beta        90.0000
_cell_angle_gamma        90.0000
_cell_formula_units_Z 1
loop_
_atom_site_label
_atom_site_type_symbol
_atom_site_fract_x
_atom_site_fract_y
_atom_site_fract_z
O1     O      0.50000000000000     0.81540000000000     0.13703000000000
O1     O      0.00000000000000     0.31540000000000     0.13703000000000
O1     O      0.50000000000000     0.18460000000000     0.63703000000000
O1     O      0.00000000000000     0.68460000000000     0.63703000000000
C2     C      0.50000000000000     0.79277000000000     0.33140000000000
C2     C      0.00000000000000     0.29277000000000     0.33140000000000
C2     C      0.50000000000000     0.20723000000000     0.83140000000000
C2     C      0.00000000000000     0.70723000000000     0.83140000000000
N3     N      0.50000000000000     0.67343000000000     0.39915000000000
N3     N      0.00000000000000     0.17343000000000     0.39915000000000
N3     N      0.50000000000000     0.32657000000000     0.89915000000000
N3     N      0.00000000000000     0.82657000000000     0.89915000000000
C4     C      0.50000000000000     0.67503000000000     0.60426000000000
C4     C      0.00000000000000     0.17503000000000     0.60426000000000
C4     C      0.50000000000000     0.32497000000000     0.10426000000000
C4     C      0.00000000000000     0.82497000000000     0.10426000000000
O5     O      0.50000000000000     0.57713000000000     0.71519000000000
O5     O      0.00000000000000     0.07713000000000     0.71519000000000
O5     O      0.50000000000000     0.42287000000000     0.21519000000000
O5     O      0.00000000000000     0.92287000000000     0.21519000000000
N6     N      0.50000000000000     0.79265000000000     0.68079000000000
N6     N      0.00000000000000     0.29265000000000     0.68079000000000
N6     N      0.50000000000000     0.20735000000000     0.18079000000000
N6     N      0.00000000000000     0.70735000000000     0.18079000000000
C7     C      0.50000000000000     0.88342000000000     0.51125000000000
C7     C      0.00000000000000     0.38342000000000     0.51125000000000
C7     C      0.50000000000000     0.11658000000000     0.01125000000000
C7     C      0.00000000000000     0.61658000000000     0.01125000000000
H9     H      0.35437000000000     0.94275000000000     0.51028000000000
H9     H      0.85437000000000     0.44275000000000     0.51028000000000
H9     H      0.64563000000000     0.05725000000000     0.01028000000000
H9     H      0.14563000000000     0.55725000000000     0.01028000000000
H9     H      0.64563000000000     0.94275000000000     0.51028000000000
H9     H      0.14563000000000     0.44275000000000     0.51028000000000
H9     H      0.35437000000000     0.05725000000000     0.01028000000000
H9     H      0.85437000000000     0.55725000000000     0.01028000000000
H10    H      0.50000000000000     0.80740000000000     0.83141000000000
H10    H      0.00000000000000     0.30740000000000     0.83141000000000
H10    H      0.50000000000000     0.19260000000000     0.33141000000000
H10    H      0.00000000000000     0.69260000000000     0.33141000000000
H11    H      0.50000000000000     0.59672000000000     0.31803000000000
H11    H      0.00000000000000     0.09672000000000     0.31803000000000
H11    H      0.50000000000000     0.40328000000000     0.81803000000000
H11    H      0.00000000000000     0.90328000000000     0.81803000000000
