data_default
_cell_volume           802.612814
_symmetry_space_group_name_H-M 'P 1'
_symmetry_Int_Tables_number 1
loop_
_symmetry_equiv_pos_site_id
_symmetry_equiv_pos_as_xyz
1 x,y,z
_cell_length_a        12.1940000000
_cell_length_b        10.2780000000
_cell_length_c         6.4040000000
_cell_angle_alpha        90.0000
_cell_angle_beta        89.9760
_cell_angle_gamma        90.0000
_cell_formula_units_Z 1
loop_
_atom_site_label
_atom_site_type_symbol
_atom_site_fract_x
_atom_site_fract_y
_atom_site_fract_z
C5     C      0.93560000000000     0.59613000000000     0.24999000000000
C5     C      0.06440000000000     0.40387000000000     0.75001000000000
C5     C      0.06440000000000     0.09613000000000     0.25001000000000
C5     C      0.93560000000000     0.90387000000000     0.74999000000000
H6     H      0.98692000000000     0.59547000000000     0.38840000000000
H6     H      0.01308000000000     0.40453000000000     0.61160000000000
H6     H      0.01308000000000     0.09547000000000     0.11160000000000
H6     H      0.98692000000000     0.90453000000000     0.88840000000000
H7     H      0.98723000000000     0.59533000000000     0.11182000000000
H7     H      0.01277000000000     0.40467000000000     0.88818000000000
H7     H      0.01277000000000     0.09533000000000     0.38818000000000
H7     H      0.98723000000000     0.90467000000000     0.61182000000000
N8     N      0.85100000000000     0.49718000000000     0.25003000000000
N8     N      0.14900000000000     0.50282000000000     0.74997000000000
N8     N      0.14900000000000     0.99718000000000     0.24997000000000
N8     N      0.85100000000000     0.00282000000000     0.75003000000000
H9     H      0.86751000000000     0.40048000000000     0.25009000000000
H9     H      0.13249000000000     0.59952000000000     0.74991000000000
H9     H      0.13249000000000     0.90048000000000     0.24991000000000
H9     H      0.86751000000000     0.09952000000000     0.75009000000000
C10    C      0.74767000000000     0.54641000000000     0.25015000000000
C10    C      0.25233000000000     0.45359000000000     0.74985000000000
C10    C      0.25233000000000     0.04641000000000     0.24985000000000
C10    C      0.74767000000000     0.95359000000000     0.75015000000000
O11    O      0.65987000000000     0.48724000000000     0.25022000000000
O11    O      0.34013000000000     0.51276000000000     0.74978000000000
O11    O      0.34013000000000     0.98724000000000     0.24978000000000
O11    O      0.65987000000000     0.01276000000000     0.75022000000000
N1     N      0.75956000000000     0.67813000000000     0.25011000000000
N1     N      0.24044000000000     0.32187000000000     0.74989000000000
N1     N      0.24044000000000     0.17813000000000     0.24989000000000
N1     N      0.75956000000000     0.82187000000000     0.75011000000000
H2     H      0.69501000000000     0.73975000000000     0.25018000000000
H2     H      0.30499000000000     0.26025000000000     0.74982000000000
H2     H      0.30499000000000     0.23975000000000     0.24982000000000
H2     H      0.69501000000000     0.76025000000000     0.75018000000000
C3     C      0.86530000000000     0.71933000000000     0.25000000000000
C3     C      0.13470000000000     0.28067000000000     0.75000000000000
C3     C      0.13470000000000     0.21933000000000     0.25000000000000
C3     C      0.86530000000000     0.78067000000000     0.75000000000000
O4     O      0.89875000000000     0.83289000000000     0.24997000000000
O4     O      0.10125000000000     0.16711000000000     0.75003000000000
O4     O      0.10125000000000     0.33289000000000     0.25003000000000
O4     O      0.89875000000000     0.66711000000000     0.74997000000000
C5     C      0.43313000000000     0.88407000000000     0.75033000000000
C5     C      0.56687000000000     0.11593000000000     0.24967000000000
C5     C      0.56687000000000     0.38407000000000     0.74967000000000
C5     C      0.43313000000000     0.61593000000000     0.25033000000000
H6     H      0.48452000000000     0.88183000000000     0.88900000000000
H6     H      0.51548000000000     0.11817000000000     0.11100000000000
H6     H      0.51548000000000     0.38183000000000     0.61100000000000
H6     H      0.48452000000000     0.61817000000000     0.38900000000000
H7     H      0.48477000000000     0.88164000000000     0.61192000000000
H7     H      0.51523000000000     0.11836000000000     0.38808000000000
H7     H      0.51523000000000     0.38164000000000     0.88808000000000
H7     H      0.48477000000000     0.61836000000000     0.11192000000000
N8     N      0.34782000000000     0.78631000000000     0.75031000000000
N8     N      0.65218000000000     0.21369000000000     0.24969000000000
N8     N      0.65218000000000     0.28631000000000     0.74969000000000
N8     N      0.34782000000000     0.71369000000000     0.25031000000000
H9     H      0.36352000000000     0.69010000000000     0.75054000000000
H9     H      0.63648000000000     0.30990000000000     0.24946000000000
H9     H      0.63648000000000     0.19010000000000     0.74946000000000
H9     H      0.36352000000000     0.80990000000000     0.25054000000000
C10    C      0.24497000000000     0.83669000000000     0.75004000000000
C10    C      0.75503000000000     0.16331000000000     0.24996000000000
C10    C      0.75503000000000     0.33669000000000     0.74996000000000
C10    C      0.24497000000000     0.66331000000000     0.25004000000000
O11    O      0.15721000000000     0.77757000000000     0.74993000000000
O11    O      0.84279000000000     0.22243000000000     0.25007000000000
O11    O      0.84279000000000     0.27757000000000     0.75007000000000
O11    O      0.15721000000000     0.72243000000000     0.24993000000000
N1     N      0.25809000000000     0.96839000000000     0.74986000000000
N1     N      0.74191000000000     0.03161000000000     0.25014000000000
N1     N      0.74191000000000     0.46839000000000     0.75014000000000
N1     N      0.25809000000000     0.53161000000000     0.24986000000000
H2     H      0.19416000000000     0.03011000000000     0.74963000000000
H2     H      0.80584000000000     0.96989000000000     0.25037000000000
H2     H      0.80584000000000     0.53011000000000     0.75037000000000
H2     H      0.19416000000000     0.46989000000000     0.24963000000000
C3     C      0.36435000000000     0.00856000000000     0.75001000000000
C3     C      0.63565000000000     0.99144000000000     0.24999000000000
C3     C      0.63565000000000     0.50856000000000     0.74999000000000
C3     C      0.36435000000000     0.49144000000000     0.25001000000000
O4     O      0.39920000000000     0.12192000000000     0.74984000000000
O4     O      0.60080000000000     0.87808000000000     0.25016000000000
O4     O      0.60080000000000     0.62192000000000     0.75016000000000
O4     O      0.39920000000000     0.37808000000000     0.24984000000000
