data_default
_cell_volume           394.394696
_symmetry_space_group_name_H-M 'P 1'
_symmetry_Int_Tables_number 1
loop_
_symmetry_equiv_pos_site_id
_symmetry_equiv_pos_as_xyz
1 x,y,z
_cell_length_a        12.1420000000
_cell_length_b         8.5840000000
_cell_length_c         3.7840000000
_cell_angle_alpha        90.0000
_cell_angle_beta        90.0000
_cell_angle_gamma        90.0000
_cell_formula_units_Z 1
loop_
_atom_site_label
_atom_site_type_symbol
_atom_site_fract_x
_atom_site_fract_y
_atom_site_fract_z
C1     C      0.56077000000000     0.74603000000000     0.80906000000000
C1     C      0.93923000000000     0.25397000000000     0.30906000000000
C1     C      0.43923000000000     0.24603000000000     0.69094000000000
C1     C      0.06077000000000     0.75397000000000     0.19094000000000
N2     N      0.64715000000000     0.63431000000000     0.70140000000000
N2     N      0.85285000000000     0.36569000000000     0.20140000000000
N2     N      0.35285000000000     0.13431000000000     0.79860000000000
N2     N      0.14715000000000     0.86569000000000     0.29860000000000
C3     C      0.75244000000000     0.69092000000000     0.77283000000000
C3     C      0.74756000000000     0.30908000000000     0.27283000000000
C3     C      0.24756000000000     0.19092000000000     0.72717000000000
C3     C      0.25244000000000     0.80908000000000     0.22717000000000
N4     N      0.74216000000000     0.83825000000000     0.92654000000000
N4     N      0.75784000000000     0.16175000000000     0.42654000000000
N4     N      0.25784000000000     0.33825000000000     0.57346000000000
N4     N      0.24216000000000     0.66175000000000     0.07346000000000
C5     C      0.63055000000000     0.87646000000000     0.95407000000000
C5     C      0.86945000000000     0.12354000000000     0.45407000000000
C5     C      0.36945000000000     0.37646000000000     0.54593000000000
C5     C      0.13055000000000     0.62354000000000     0.04593000000000
O6     O      0.84066000000000     0.62280000000000     0.71121000000000
O6     O      0.65934000000000     0.37720000000000     0.21121000000000
O6     O      0.15934000000000     0.12280000000000     0.78879000000000
O6     O      0.34066000000000     0.87720000000000     0.28879000000000
O7     O      0.59346000000000     0.99803000000000     0.07767000000000
O7     O      0.90654000000000     0.00197000000000     0.57767000000000
O7     O      0.40654000000000     0.49803000000000     0.42233000000000
O7     O      0.09346000000000     0.50197000000000     0.92233000000000
H8     H      0.50750000000000     0.69632000000000     0.01557000000000
H8     H      0.99250000000000     0.30368000000000     0.51557000000000
H8     H      0.49250000000000     0.19632000000000     0.48443000000000
H8     H      0.00750000000000     0.80368000000000     0.98443000000000
H9     H      0.51229000000000     0.78530000000000     0.58006000000000
H9     H      0.98771000000000     0.21470000000000     0.08006000000000
H9     H      0.48771000000000     0.28530000000000     0.91994000000000
H9     H      0.01229000000000     0.71470000000000     0.41994000000000
H10    H      0.63236000000000     0.52705000000000     0.58697000000000
H10    H      0.86764000000000     0.47295000000000     0.08697000000000
H10    H      0.36764000000000     0.02705000000000     0.91303000000000
H10    H      0.13236000000000     0.97295000000000     0.41303000000000
H11    H      0.80696000000000     0.90778000000000     0.00697000000000
H11    H      0.69304000000000     0.09222000000000     0.50697000000000
H11    H      0.19304000000000     0.40778000000000     0.49303000000000
H11    H      0.30696000000000     0.59222000000000     0.99303000000000
