data_default
_cell_volume           411.669239
_symmetry_space_group_name_H-M 'P 1'
_symmetry_Int_Tables_number 1
loop_
_symmetry_equiv_pos_site_id
_symmetry_equiv_pos_as_xyz
1 x,y,z
_cell_length_a         6.2840000000
_cell_length_b        10.4250000000
_cell_length_c         6.2840000000
_cell_angle_alpha        90.0000
_cell_angle_beta        90.0000
_cell_angle_gamma        90.0000
_cell_formula_units_Z 1
loop_
_atom_site_label
_atom_site_type_symbol
_atom_site_fract_x
_atom_site_fract_y
_atom_site_fract_z
N1     N      0.50000000000000     0.70909000000000     0.39804000000000
N1     N      0.00000000000000     0.20909000000000     0.39804000000000
N1     N      0.50000000000000     0.29091000000000     0.89804000000000
N1     N      0.00000000000000     0.79091000000000     0.89804000000000
C2     C      0.50000000000000     0.82654000000000     0.47353000000000
C2     C      0.00000000000000     0.32654000000000     0.47353000000000
C2     C      0.50000000000000     0.17346000000000     0.97353000000000
C2     C      0.00000000000000     0.67346000000000     0.97353000000000
N3     N      0.50000000000000     0.82578000000000     0.67989000000000
N3     N      0.00000000000000     0.32578000000000     0.67989000000000
N3     N      0.50000000000000     0.17422000000000     0.17989000000000
N3     N      0.00000000000000     0.67422000000000     0.17989000000000
C4     C      0.50000000000000     0.70703000000000     0.74883000000000
C4     C      0.00000000000000     0.20703000000000     0.74883000000000
C4     C      0.50000000000000     0.29297000000000     0.24883000000000
C4     C      0.00000000000000     0.79297000000000     0.24883000000000
C5     C      0.50000000000000     0.61775000000000     0.56846000000000
C5     C      0.00000000000000     0.11775000000000     0.56846000000000
C5     C      0.50000000000000     0.38225000000000     0.06846000000000
C5     C      0.00000000000000     0.88225000000000     0.06846000000000
O6     O      0.50000000000000     0.68246000000000     0.94303000000000
O6     O      0.00000000000000     0.18246000000000     0.94303000000000
O6     O      0.50000000000000     0.31754000000000     0.44303000000000
O6     O      0.00000000000000     0.81754000000000     0.44303000000000
O7     O      0.50000000000000     0.92506000000000     0.36455000000000
O7     O      0.00000000000000     0.42506000000000     0.36455000000000
O7     O      0.50000000000000     0.07494000000000     0.86455000000000
O7     O      0.00000000000000     0.57494000000000     0.86455000000000
H8     H      0.50000000000000     0.69492000000000     0.24620000000000
H8     H      0.00000000000000     0.19492000000000     0.24620000000000
H8     H      0.50000000000000     0.30508000000000     0.74620000000000
H8     H      0.00000000000000     0.80508000000000     0.74620000000000
H9     H      0.50000000000000     0.90167000000000     0.76243000000000
H9     H      0.00000000000000     0.40167000000000     0.76243000000000
H9     H      0.50000000000000     0.09833000000000     0.26243000000000
H9     H      0.00000000000000     0.59833000000000     0.26243000000000
H10    H      0.35505000000000     0.55867000000000     0.57172000000000
H10    H      0.85505000000000     0.05867000000000     0.57172000000000
H10    H      0.64495000000000     0.44133000000000     0.07172000000000
H10    H      0.14495000000000     0.94133000000000     0.07172000000000
H10    H      0.35505000000000     0.44133000000000     0.07172000000000
H10    H      0.85505000000000     0.94133000000000     0.07172000000000
H10    H      0.64495000000000     0.55867000000000     0.57172000000000
H10    H      0.14495000000000     0.05867000000000     0.57172000000000
