data_default
_cell_volume           401.114402
_symmetry_space_group_name_H-M 'P 1'
_symmetry_Int_Tables_number 1
loop_
_symmetry_equiv_pos_site_id
_symmetry_equiv_pos_as_xyz
1 x,y,z
_cell_length_a         4.1140000000
_cell_length_b        12.1870000000
_cell_length_c        10.2410000000
_cell_angle_alpha        90.0000
_cell_angle_beta        51.3710
_cell_angle_gamma        90.0000
_cell_formula_units_Z 1
loop_
_atom_site_label
_atom_site_type_symbol
_atom_site_fract_x
_atom_site_fract_y
_atom_site_fract_z
C5     C      0.58402000000000     0.31898000000000     0.71623000000000
C5     C      0.41598000000000     0.68102000000000     0.28377000000000
C5     C      0.41598000000000     0.81898000000000     0.78377000000000
C5     C      0.58402000000000     0.18102000000000     0.21623000000000
H6     H      0.33562000000000     0.25858000000000     0.77549000000000
H6     H      0.66438000000000     0.74142000000000     0.22451000000000
H6     H      0.66438000000000     0.75858000000000     0.72451000000000
H6     H      0.33562000000000     0.24142000000000     0.27549000000000
H7     H      0.88290000000000     0.27723000000000     0.63875000000000
H7     H      0.11710000000000     0.72277000000000     0.36125000000000
H7     H      0.11710000000000     0.77723000000000     0.86125000000000
H7     H      0.88290000000000     0.22277000000000     0.13875000000000
N8     N      0.54074000000000     0.40458000000000     0.62998000000000
N8     N      0.45926000000000     0.59542000000000     0.37002000000000
N8     N      0.45926000000000     0.90458000000000     0.87002000000000
N8     N      0.54074000000000     0.09542000000000     0.12998000000000
H9     H      0.55089000000000     0.38941000000000     0.53050000000000
H9     H      0.44911000000000     0.61059000000000     0.46950000000000
H9     H      0.44911000000000     0.88941000000000     0.96950000000000
H9     H      0.55089000000000     0.11059000000000     0.03050000000000
C10    C      0.49015000000000     0.50620000000000     0.69459000000000
C10    C      0.50985000000000     0.49380000000000     0.30541000000000
C10    C      0.50985000000000     0.00620000000000     0.80541000000000
C10    C      0.49015000000000     0.99380000000000     0.19459000000000
O11    O      0.44411000000000     0.59356000000000     0.64759000000000
O11    O      0.55589000000000     0.40644000000000     0.35241000000000
O11    O      0.55589000000000     0.09356000000000     0.85241000000000
O11    O      0.44411000000000     0.90644000000000     0.14759000000000
N1     N      0.49752000000000     0.49204000000000     0.82472000000000
N1     N      0.50248000000000     0.50796000000000     0.17528000000000
N1     N      0.50248000000000     0.99204000000000     0.67528000000000
N1     N      0.49752000000000     0.00796000000000     0.32472000000000
H2     H      0.46949000000000     0.55507000000000     0.89495000000000
H2     H      0.53051000000000     0.44493000000000     0.10505000000000
H2     H      0.53051000000000     0.05507000000000     0.60505000000000
H2     H      0.46949000000000     0.94493000000000     0.39495000000000
C3     C      0.54919000000000     0.38626000000000     0.85063000000000
C3     C      0.45081000000000     0.61374000000000     0.14937000000000
C3     C      0.45081000000000     0.88626000000000     0.64937000000000
C3     C      0.54919000000000     0.11374000000000     0.35063000000000
O4     O      0.56995000000000     0.35074000000000     0.95854000000000
O4     O      0.43005000000000     0.64926000000000     0.04146000000000
O4     O      0.43005000000000     0.85074000000000     0.54146000000000
O4     O      0.56995000000000     0.14926000000000     0.45854000000000
