data_default
_cell_volume           398.634591
_symmetry_space_group_name_H-M 'P 1'
_symmetry_Int_Tables_number 1
loop_
_symmetry_equiv_pos_site_id
_symmetry_equiv_pos_as_xyz
1 x,y,z
_cell_length_a         3.7140000000
_cell_length_b        11.8810000000
_cell_length_c         9.0340000000
_cell_angle_alpha        90.0000
_cell_angle_beta        90.0000
_cell_angle_gamma        90.0000
_cell_formula_units_Z 1
loop_
_atom_site_label
_atom_site_type_symbol
_atom_site_fract_x
_atom_site_fract_y
_atom_site_fract_z
C1     C      0.81032000000000     0.44143000000000     0.25251000000000
C1     C      0.68968000000000     0.55857000000000     0.75251000000000
C1     C      0.18968000000000     0.94143000000000     0.24749000000000
C1     C      0.31032000000000     0.05857000000000     0.74749000000000
N2     N      0.72105000000000     0.35658000000000     0.13857000000000
N2     N      0.77895000000000     0.64342000000000     0.63857000000000
N2     N      0.27895000000000     0.85658000000000     0.36143000000000
N2     N      0.22105000000000     0.14342000000000     0.86143000000000
C3     C      0.78899000000000     0.24746000000000     0.18792000000000
C3     C      0.71101000000000     0.75254000000000     0.68792000000000
C3     C      0.21101000000000     0.74746000000000     0.31208000000000
C3     C      0.28899000000000     0.25254000000000     0.81208000000000
N4     N      0.92251000000000     0.25358000000000     0.33234000000000
N4     N      0.57749000000000     0.74642000000000     0.83234000000000
N4     N      0.07749000000000     0.75358000000000     0.16766000000000
N4     N      0.42251000000000     0.24642000000000     0.66766000000000
C5     C      0.94054000000000     0.36635000000000     0.37593000000000
C5     C      0.55946000000000     0.63365000000000     0.87593000000000
C5     C      0.05946000000000     0.86635000000000     0.12407000000000
C5     C      0.44054000000000     0.13365000000000     0.62407000000000
O6     O      0.73997000000000     0.15944000000000     0.11644000000000
O6     O      0.76003000000000     0.84056000000000     0.61644000000000
O6     O      0.26003000000000     0.65944000000000     0.38356000000000
O6     O      0.23997000000000     0.34056000000000     0.88356000000000
O7     O      0.04635000000000     0.40061000000000     0.49672000000000
O7     O      0.45365000000000     0.59939000000000     0.99672000000000
O7     O      0.95365000000000     0.90061000000000     0.00328000000000
O7     O      0.54635000000000     0.09939000000000     0.50328000000000
H8     H      0.56976000000000     0.48902000000000     0.28625000000000
H8     H      0.93024000000000     0.51098000000000     0.78625000000000
H8     H      0.43024000000000     0.98902000000000     0.21375000000000
H8     H      0.06976000000000     0.01098000000000     0.71375000000000
H9     H      0.02583000000000     0.49797000000000     0.21432000000000
H9     H      0.47417000000000     0.50203000000000     0.71432000000000
H9     H      0.97417000000000     0.99797000000000     0.28568000000000
H9     H      0.52583000000000     0.00203000000000     0.78568000000000
H10    H      0.62047000000000     0.37485000000000     0.03469000000000
H10    H      0.87953000000000     0.62515000000000     0.53469000000000
H10    H      0.37953000000000     0.87485000000000     0.46531000000000
H10    H      0.12047000000000     0.12515000000000     0.96531000000000
H11    H      0.99612000000000     0.18540000000000     0.39658000000000
H11    H      0.50388000000000     0.81460000000000     0.89658000000000
H11    H      0.00388000000000     0.68540000000000     0.10342000000000
H11    H      0.49612000000000     0.31460000000000     0.60342000000000
