data_default
_cell_volume           390.996616
_symmetry_space_group_name_H-M 'P 1'
_symmetry_Int_Tables_number 1
loop_
_symmetry_equiv_pos_site_id
_symmetry_equiv_pos_as_xyz
1 x,y,z
_cell_length_a         3.9016400000
_cell_length_b         9.2430000000
_cell_length_c        11.4464400000
_cell_angle_alpha       104.4103
_cell_angle_beta        92.1148
_cell_angle_gamma       100.9417
_cell_formula_units_Z 1
loop_
_atom_site_label
_atom_site_type_symbol
_atom_site_fract_x
_atom_site_fract_y
_atom_site_fract_z
C6     C      0.04742000000000     0.52857000000000     0.06333000000000
C6     C      0.95258000000000     0.47143000000000     0.93667000000000
C7     C      0.00416000000000     0.67716000000000     0.12490000000000
C7     C      0.99584000000000     0.32284000000000     0.87510000000000
C17    C      0.10176000000000     0.73493000000000     0.25190000000000
C17    C      0.89824000000000     0.26507000000000     0.74810000000000
C18    C      0.23572000000000     0.64213000000000     0.31587000000000
C18    C      0.76428000000000     0.35787000000000     0.68413000000000
I      I      0.38205000000000     0.70882000000000     0.49901000000000
I      I      0.61795000000000     0.29118000000000     0.50099000000000
C20    C      0.27676000000000     0.49585000000000     0.25449000000000
C20    C      0.72324000000000     0.50415000000000     0.74551000000000
C21    C      0.18771000000000     0.43764000000000     0.12847000000000
C21    C      0.81229000000000     0.56236000000000     0.87153000000000
C22    C      0.23798000000000     0.29150000000000     0.06633000000000
C22    C      0.76202000000000     0.70850000000000     0.93367000000000
O23    O      0.38516000000000     0.21610000000000     0.12263000000000
O23    O      0.61484000000000     0.78390000000000     0.87737000000000
C24    C      0.13749000000000     0.23228000000000     0.94083000000000
C24    C      0.86251000000000     0.76772000000000     0.05917000000000
C25    C      0.17614000000000     0.08441000000000     0.87837000000000
C25    C      0.82386000000000     0.91559000000000     0.12163000000000
C26    C      0.07427000000000     0.02639000000000     0.75431000000000
C26    C      0.92573000000000     0.97361000000000     0.24569000000000
C27    C      0.93811000000000     0.11620000000000     0.68951000000000
C27    C      0.06189000000000     0.88380000000000     0.31049000000000
H31    H      0.37463000000000     0.43150000000000     0.30336000000000
H31    H      0.62537000000000     0.56850000000000     0.69664000000000
H32    H      0.13238000000000     0.92924000000000     0.40084000000000
H32    H      0.86762000000000     0.07076000000000     0.59916000000000
H33    H      0.90079000000000     0.08188000000000     0.28838000000000
H33    H      0.09921000000000     0.91812000000000     0.71162000000000
H34    H      0.72233000000000     0.98370000000000     0.07739000000000
H34    H      0.27767000000000     0.01630000000000     0.92261000000000
