data_default
_cell_volume           777.157606
_symmetry_space_group_name_H-M 'P 1'
_symmetry_Int_Tables_number 1
loop_
_symmetry_equiv_pos_site_id
_symmetry_equiv_pos_as_xyz
1 x,y,z
_cell_length_a        16.5126800000
_cell_length_b        12.2361300000
_cell_length_c        16.6514300000
_cell_angle_alpha        90.0000
_cell_angle_beta       166.6445
_cell_angle_gamma        90.0000
_cell_formula_units_Z 1
loop_
_atom_site_label
_atom_site_type_symbol
_atom_site_fract_x
_atom_site_fract_y
_atom_site_fract_z
C6     C      0.02973000000000     0.44520000000000     0.54235000000000
C6     C      0.97027000000000     0.55480000000000     0.45765000000000
C6     C      0.97027000000000     0.94520000000000     0.95765000000000
C6     C      0.02973000000000     0.05480000000000     0.04235000000000
C7     C      0.14331000000000     0.42571000000000     0.73206000000000
C7     C      0.85669000000000     0.57429000000000     0.26794000000000
C7     C      0.85669000000000     0.92571000000000     0.76794000000000
C7     C      0.14331000000000     0.07429000000000     0.23206000000000
C17    C      0.19783000000000     0.31652000000000     0.81214000000000
C17    C      0.80217000000000     0.68348000000000     0.18786000000000
C17    C      0.80217000000000     0.81652000000000     0.68786000000000
C17    C      0.19783000000000     0.18348000000000     0.31214000000000
C18    C      0.14286000000000     0.22830000000000     0.70568000000000
C18    C      0.85714000000000     0.77170000000000     0.29432000000000
C18    C      0.85714000000000     0.72830000000000     0.79432000000000
C18    C      0.14286000000000     0.27170000000000     0.20568000000000
I      I      0.22093000000000     0.06713000000000     0.81169000000000
I      I      0.77907000000000     0.93287000000000     0.18831000000000
I      I      0.77907000000000     0.56713000000000     0.68831000000000
I      I      0.22093000000000     0.43287000000000     0.31169000000000
C20    C      0.03150000000000     0.24823000000000     0.51932000000000
C20    C      0.96850000000000     0.75177000000000     0.48068000000000
C20    C      0.96850000000000     0.74823000000000     0.98068000000000
C20    C      0.03150000000000     0.25177000000000     0.01932000000000
C21    C      0.97136000000000     0.35570000000000     0.43332000000000
C21    C      0.02864000000000     0.64430000000000     0.56668000000000
C21    C      0.02864000000000     0.85570000000000     0.06668000000000
C21    C      0.97136000000000     0.14430000000000     0.93332000000000
C22    C      0.85418000000000     0.37561000000000     0.24100000000000
C22    C      0.14582000000000     0.62439000000000     0.75900000000000
C22    C      0.14582000000000     0.87561000000000     0.25900000000000
C22    C      0.85418000000000     0.12439000000000     0.74100000000000
O23    O      0.79039000000000     0.29665000000000     0.13363000000000
O23    O      0.20961000000000     0.70335000000000     0.86637000000000
O23    O      0.20961000000000     0.79665000000000     0.36637000000000
O23    O      0.79039000000000     0.20335000000000     0.63363000000000
C24    C      0.80065000000000     0.48352000000000     0.16144000000000
C24    C      0.19935000000000     0.51648000000000     0.83856000000000
C24    C      0.19935000000000     0.98352000000000     0.33856000000000
C24    C      0.80065000000000     0.01648000000000     0.66144000000000
C25    C      0.68892000000000     0.50435000000000     0.97406000000000
C25    C      0.31108000000000     0.49565000000000     0.02594000000000
C25    C      0.31108000000000     0.00435000000000     0.52594000000000
C25    C      0.68892000000000     0.99565000000000     0.47406000000000
C26    C      0.63859000000000     0.61137000000000     0.89812000000000
C26    C      0.36141000000000     0.38863000000000     0.10188000000000
C26    C      0.36141000000000     0.11137000000000     0.60188000000000
C26    C      0.63859000000000     0.88863000000000     0.39812000000000
C27    C      0.69635000000000     0.69963000000000     0.00584000000000
C27    C      0.30365000000000     0.30037000000000     0.99416000000000
C27    C      0.30365000000000     0.19963000000000     0.49416000000000
C27    C      0.69635000000000     0.80037000000000     0.50584000000000
H31    H      0.99433000000000     0.18253000000000     0.44616000000000
H31    H      0.00567000000000     0.81747000000000     0.55384000000000
H31    H      0.00567000000000     0.68253000000000     0.05384000000000
H31    H      0.99433000000000     0.31747000000000     0.94616000000000
H32    H      0.34481000000000     0.22289000000000     0.05613000000000
H32    H      0.65519000000000     0.77711000000000     0.94387000000000
H32    H      0.65519000000000     0.72289000000000     0.44387000000000
H32    H      0.34481000000000     0.27711000000000     0.55613000000000
H33    H      0.44324000000000     0.37410000000000     0.23893000000000
H33    H      0.55676000000000     0.62590000000000     0.76107000000000
H33    H      0.55676000000000     0.87410000000000     0.26107000000000
H33    H      0.44324000000000     0.12590000000000     0.73893000000000
H34    H      0.35944000000000     0.55765000000000     0.11197000000000
H34    H      0.64056000000000     0.44235000000000     0.88803000000000
H34    H      0.64056000000000     0.05765000000000     0.38803000000000
H34    H      0.35944000000000     0.94235000000000     0.61197000000000
