data_default
_cell_volume          1623.351818
_symmetry_space_group_name_H-M 'P 1'
_symmetry_Int_Tables_number 1
loop_
_symmetry_equiv_pos_site_id
_symmetry_equiv_pos_as_xyz
1 x,y,z
_cell_length_a        35.3211000000
_cell_length_b         4.1406000000
_cell_length_c        11.0998000000
_cell_angle_alpha        90.0000
_cell_angle_beta        90.0000
_cell_angle_gamma        90.0000
_cell_formula_units_Z 1
loop_
_atom_site_label
_atom_site_type_symbol
_atom_site_fract_x
_atom_site_fract_y
_atom_site_fract_z
C1     C      0.93495000000000     0.96017000000000     0.08273000000000
C1     C      0.56505000000000     0.03983000000000     0.58273000000000
C1     C      0.06505000000000     0.46017000000000     0.41727000000000
C1     C      0.43495000000000     0.53983000000000     0.91727000000000
C2     C      0.91984000000000     0.05104000000000     0.96839000000000
C2     C      0.58016000000000     0.94896000000000     0.46839000000000
C2     C      0.08016000000000     0.55104000000000     0.53161000000000
C2     C      0.41984000000000     0.44896000000000     0.03161000000000
C3     C      0.88472000000000     0.22207000000000     0.96212000000000
C3     C      0.61528000000000     0.77793000000000     0.46212000000000
C3     C      0.11528000000000     0.72207000000000     0.53788000000000
C3     C      0.38472000000000     0.27793000000000     0.03788000000000
C4     C      0.86513000000000     0.30056000000000     0.06769000000000
C4     C      0.63487000000000     0.69944000000000     0.56769000000000
C4     C      0.13487000000000     0.80056000000000     0.43231000000000
C4     C      0.36513000000000     0.19944000000000     0.93231000000000
C5     C      0.87983000000000     0.21194000000000     0.18047000000000
C5     C      0.62017000000000     0.78806000000000     0.68047000000000
C5     C      0.12017000000000     0.71194000000000     0.31953000000000
C5     C      0.37983000000000     0.28806000000000     0.81953000000000
C6     C      0.96977000000000     0.79087000000000     0.08755000000000
C6     C      0.53023000000000     0.20913000000000     0.58755000000000
C6     C      0.03023000000000     0.29087000000000     0.41245000000000
C6     C      0.46977000000000     0.70913000000000     0.91245000000000
C7     C      0.98932000000000     0.71230000000000     0.98352000000000
C7     C      0.51068000000000     0.28770000000000     0.48352000000000
C7     C      0.01068000000000     0.21230000000000     0.51648000000000
C7     C      0.48932000000000     0.78770000000000     0.01648000000000
C8     C      0.97461000000000     0.80098000000000     0.87087000000000
C8     C      0.52539000000000     0.19902000000000     0.37087000000000
C8     C      0.02539000000000     0.30098000000000     0.62913000000000
C8     C      0.47461000000000     0.69902000000000     0.12913000000000
C9     C      0.94045000000000     0.96762000000000     0.86278000000000
C9     C      0.55955000000000     0.03238000000000     0.36278000000000
C9     C      0.05955000000000     0.46762000000000     0.63722000000000
C9     C      0.44045000000000     0.53238000000000     0.13722000000000
C10    C      0.82865000000000     0.47746000000000     0.06585000000000
C10    C      0.67135000000000     0.52254000000000     0.56585000000000
C10    C      0.17135000000000     0.97746000000000     0.43415000000000
C10    C      0.32865000000000     0.02254000000000     0.93415000000000
C11    C      0.81381000000000     0.56783000000000     0.94624000000000
C11    C      0.68619000000000     0.43217000000000     0.44624000000000
C11    C      0.18619000000000     0.06783000000000     0.55376000000000
C11    C      0.31381000000000     0.93217000000000     0.05376000000000
C12    C      0.83442000000000     0.48438000000000     0.84062000000000
C12    C      0.66558000000000     0.51562000000000     0.34062000000000
C12    C      0.16558000000000     0.98438000000000     0.65938000000000
C12    C      0.33442000000000     0.01562000000000     0.15938000000000
C13    C      0.86955000000000     0.31337000000000     0.84690000000000
C13    C      0.63045000000000     0.68663000000000     0.34690000000000
C13    C      0.13045000000000     0.81337000000000     0.65310000000000
C13    C      0.36955000000000     0.18663000000000     0.15310000000000
C14    C      0.92562000000000     0.05796000000000     0.74317000000000
C14    C      0.57438000000000     0.94204000000000     0.24317000000000
C14    C      0.07438000000000     0.55796000000000     0.75683000000000
C14    C      0.42562000000000     0.44204000000000     0.25683000000000
C15    C      0.88914000000000     0.23488000000000     0.74133000000000
C15    C      0.61086000000000     0.76512000000000     0.24133000000000
C15    C      0.11086000000000     0.73488000000000     0.75867000000000
C15    C      0.38914000000000     0.26512000000000     0.25867000000000
C16    C      0.81931000000000     0.57529000000000     0.72629000000000
C16    C      0.68069000000000     0.42471000000000     0.22629000000000
C16    C      0.18069000000000     0.07529000000000     0.77371000000000
C16    C      0.31931000000000     0.92471000000000     0.27371000000000
C17    C      0.78450000000000     0.74459000000000     0.72147000000000
C17    C      0.71550000000000     0.25541000000000     0.22147000000000
C17    C      0.21550000000000     0.24459000000000     0.77853000000000
C17    C      0.28450000000000     0.75541000000000     0.27853000000000
C18    C      0.76495000000000     0.82311000000000     0.82550000000000
C18    C      0.73505000000000     0.17689000000000     0.32550000000000
C18    C      0.23505000000000     0.32311000000000     0.67450000000000
C18    C      0.26495000000000     0.67689000000000     0.17450000000000
C19    C      0.77966000000000     0.73443000000000     0.93815000000000
C19    C      0.72034000000000     0.26557000000000     0.43815000000000
C19    C      0.22034000000000     0.23443000000000     0.56185000000000
C19    C      0.27966000000000     0.76557000000000     0.06185000000000
C20    C      0.87444000000000     0.32354000000000     0.62856000000000
C20    C      0.62556000000000     0.67646000000000     0.12856000000000
C20    C      0.12556000000000     0.82354000000000     0.87144000000000
C20    C      0.37444000000000     0.17646000000000     0.37144000000000
C21    C      0.91350000000000     0.04802000000000     0.18626000000000
C21    C      0.58650000000000     0.95198000000000     0.68626000000000
C21    C      0.08650000000000     0.54802000000000     0.31374000000000
C21    C      0.41350000000000     0.45198000000000     0.81374000000000
C22    C      0.84077000000000     0.48747000000000     0.62276000000000
C22    C      0.65923000000000     0.51253000000000     0.12276000000000
C22    C      0.15923000000000     0.98747000000000     0.87724000000000
C22    C      0.34077000000000     0.01253000000000     0.37724000000000
O23    O      0.81174000000000     0.54470000000000     0.16045000000000
O23    O      0.68826000000000     0.45530000000000     0.66045000000000
O23    O      0.18826000000000     0.04470000000000     0.33955000000000
O23    O      0.31174000000000     0.95530000000000     0.83955000000000
O24    O      0.94253000000000     0.99074000000000     0.64858000000000
O24    O      0.55747000000000     0.00926000000000     0.14858000000000
O24    O      0.05747000000000     0.49074000000000     0.85142000000000
O24    O      0.44253000000000     0.50926000000000     0.35142000000000
I25    I      0.93289000000000     0.92753000000000     0.35846000000000
I25    I      0.56711000000000     0.07247000000000     0.85846000000000
I25    I      0.06711000000000     0.42753000000000     0.14154000000000
I25    I      0.43289000000000     0.57247000000000     0.64154000000000
I26    I      0.82138000000000     0.60808000000000     0.45056000000000
I26    I      0.67862000000000     0.39192000000000     0.95056000000000
I26    I      0.17862000000000     0.10808000000000     0.04944000000000
I26    I      0.32138000000000     0.89192000000000     0.54944000000000
H27    H      0.86393000000000     0.27651000000000     0.26073000000000
H27    H      0.63607000000000     0.72349000000000     0.76073000000000
H27    H      0.13607000000000     0.77651000000000     0.23927000000000
H27    H      0.36393000000000     0.22349000000000     0.73927000000000
H28    H      0.98112000000000     0.72233000000000     0.17501000000000
H28    H      0.51888000000000     0.27767000000000     0.67501000000000
H28    H      0.01888000000000     0.22233000000000     0.32499000000000
H28    H      0.48112000000000     0.77767000000000     0.82499000000000
H29    H      0.01604000000000     0.58201000000000     0.98934000000000
H29    H      0.48396000000000     0.41799000000000     0.48934000000000
H29    H      0.98396000000000     0.08201000000000     0.51066000000000
H29    H      0.51604000000000     0.91799000000000     0.01066000000000
H30    H      0.98956000000000     0.74137000000000     0.78806000000000
H30    H      0.51044000000000     0.25863000000000     0.28806000000000
H30    H      0.01044000000000     0.24137000000000     0.71194000000000
H30    H      0.48956000000000     0.75863000000000     0.21194000000000
H31    H      0.77315000000000     0.81311000000000     0.63400000000000
H31    H      0.72685000000000     0.18689000000000     0.13400000000000
H31    H      0.22685000000000     0.31311000000000     0.86600000000000
H31    H      0.27315000000000     0.68689000000000     0.36600000000000
H32    H      0.73823000000000     0.95340000000000     0.81967000000000
H32    H      0.76177000000000     0.04660000000000     0.31967000000000
H32    H      0.26177000000000     0.45340000000000     0.68033000000000
H32    H      0.23823000000000     0.54660000000000     0.18033000000000
H33    H      0.76469000000000     0.79406000000000     0.02095000000000
H33    H      0.73531000000000     0.20594000000000     0.52095000000000
H33    H      0.23531000000000     0.29406000000000     0.47905000000000
H33    H      0.26469000000000     0.70594000000000     0.97905000000000
H34    H      0.89034000000000     0.25902000000000     0.54829000000000
H34    H      0.60966000000000     0.74098000000000     0.04829000000000
H34    H      0.10966000000000     0.75902000000000     0.95171000000000
H34    H      0.39034000000000     0.24098000000000     0.45171000000000
