data_default
_cell_volume           797.922813
_symmetry_space_group_name_H-M 'P 1'
_symmetry_Int_Tables_number 1
loop_
_symmetry_equiv_pos_site_id
_symmetry_equiv_pos_as_xyz
1 x,y,z
_cell_length_a        22.7870000000
_cell_length_b         8.7480000000
_cell_length_c        23.1360000000
_cell_angle_alpha        90.0000
_cell_angle_beta       170.0370
_cell_angle_gamma        90.0000
_cell_formula_units_Z 1
loop_
_atom_site_label
_atom_site_type_symbol
_atom_site_fract_x
_atom_site_fract_y
_atom_site_fract_z
C1     C      0.23690000000000     0.52624000000000     0.66484000000000
C1     C      0.76310000000000     0.02624000000000     0.83516000000000
C1     C      0.76310000000000     0.47376000000000     0.33516000000000
C1     C      0.23690000000000     0.97376000000000     0.16484000000000
C2     C      0.89063000000000     0.54470000000000     0.41860000000000
C2     C      0.10937000000000     0.04470000000000     0.08140000000000
C2     C      0.10937000000000     0.45530000000000     0.58140000000000
C2     C      0.89063000000000     0.95530000000000     0.91860000000000
C3     C      0.82278000000000     0.69761000000000     0.34185000000000
C3     C      0.17722000000000     0.19761000000000     0.15815000000000
C3     C      0.17722000000000     0.30239000000000     0.65815000000000
C3     C      0.82278000000000     0.80239000000000     0.84185000000000
C4     C      0.17120000000000     0.68318000000000     0.58883000000000
C4     C      0.82880000000000     0.18318000000000     0.91117000000000
C4     C      0.82880000000000     0.31682000000000     0.41117000000000
C4     C      0.17120000000000     0.81682000000000     0.08883000000000
C5     C      0.44151000000000     0.43987000000000     0.82474000000000
C5     C      0.55849000000000     0.93987000000000     0.67526000000000
C5     C      0.55849000000000     0.56013000000000     0.17526000000000
C5     C      0.44151000000000     0.06013000000000     0.32474000000000
C6     C      0.48436000000000     0.71668000000000     0.10100000000000
C6     C      0.51564000000000     0.21668000000000     0.39900000000000
C6     C      0.51564000000000     0.28332000000000     0.89900000000000
C6     C      0.48436000000000     0.78332000000000     0.60100000000000
C7     C      0.61850000000000     0.78298000000000     0.18236000000000
C7     C      0.38150000000000     0.28298000000000     0.31764000000000
C7     C      0.38150000000000     0.21702000000000     0.81764000000000
C7     C      0.61850000000000     0.71702000000000     0.68236000000000
C8     C      0.95951000000000     0.77554000000000     0.42281000000000
C8     C      0.04049000000000     0.27554000000000     0.07719000000000
C8     C      0.04049000000000     0.22446000000000     0.57719000000000
C8     C      0.95951000000000     0.72446000000000     0.92281000000000
C9     C      0.30533000000000     0.75056000000000     0.66998000000000
C9     C      0.69467000000000     0.25056000000000     0.83002000000000
C9     C      0.69467000000000     0.24944000000000     0.33002000000000
C9     C      0.30533000000000     0.74944000000000     0.16998000000000
C10    C      0.57504000000000     0.51338000000000     0.90431000000000
C10    C      0.42496000000000     0.01338000000000     0.59569000000000
C10    C      0.42496000000000     0.48662000000000     0.09569000000000
C10    C      0.57504000000000     0.98662000000000     0.40431000000000
C11    C      0.50868000000000     0.66462000000000     0.82892000000000
C11    C      0.49132000000000     0.16462000000000     0.67108000000000
C11    C      0.49132000000000     0.33538000000000     0.17108000000000
C11    C      0.50868000000000     0.83538000000000     0.32892000000000
O12    O      0.90852000000000     0.91220000000000     0.35339000000000
O12    O      0.09148000000000     0.41220000000000     0.14661000000000
O12    O      0.09148000000000     0.08780000000000     0.64661000000000
O12    O      0.90852000000000     0.58780000000000     0.85339000000000
I13    I      0.19559000000000     0.84845000000000     0.87343000000000
I13    I      0.80441000000000     0.34845000000000     0.62657000000000
I13    I      0.80441000000000     0.15155000000000     0.12657000000000
I13    I      0.19559000000000     0.65155000000000     0.37343000000000
H14    H      0.57200000000000     0.90441000000000     0.12659000000000
H14    H      0.42800000000000     0.40441000000000     0.37341000000000
H14    H      0.42800000000000     0.09559000000000     0.87341000000000
H14    H      0.57200000000000     0.59559000000000     0.62659000000000
H15    H      0.73405000000000     0.44668000000000     0.02850000000000
H15    H      0.26595000000000     0.94668000000000     0.47150000000000
H15    H      0.26595000000000     0.55332000000000     0.97150000000000
H15    H      0.73405000000000     0.05332000000000     0.52850000000000
H16    H      0.61284000000000     0.72065000000000     0.89124000000000
H16    H      0.38716000000000     0.22065000000000     0.60876000000000
H16    H      0.38716000000000     0.27935000000000     0.10876000000000
H16    H      0.61284000000000     0.77935000000000     0.39124000000000
H17    H      0.25301000000000     0.87211000000000     0.61010000000000
H17    H      0.74699000000000     0.37211000000000     0.88990000000000
H17    H      0.74699000000000     0.12789000000000     0.38990000000000
H17    H      0.25301000000000     0.62789000000000     0.11010000000000
