data_default
_cell_volume           781.160357
_symmetry_space_group_name_H-M 'P 1'
_symmetry_Int_Tables_number 1
loop_
_symmetry_equiv_pos_site_id
_symmetry_equiv_pos_as_xyz
1 x,y,z
_cell_length_a        12.6530000000
_cell_length_b         3.9950000000
_cell_length_c        16.3730000000
_cell_angle_alpha        90.0000
_cell_angle_beta       109.2920
_cell_angle_gamma        90.0000
_cell_formula_units_Z 1
loop_
_atom_site_label
_atom_site_type_symbol
_atom_site_fract_x
_atom_site_fract_y
_atom_site_fract_z
C1     C      0.65669000000000     0.51768000000000     0.54102000000000
C1     C      0.34331000000000     0.01768000000000     0.95898000000000
C1     C      0.34331000000000     0.48232000000000     0.45898000000000
C1     C      0.65669000000000     0.98232000000000     0.04102000000000
C2     C      0.45131000000000     0.55422000000000     0.51272000000000
C2     C      0.54869000000000     0.05422000000000     0.98728000000000
C2     C      0.54869000000000     0.44578000000000     0.48728000000000
C2     C      0.45131000000000     0.94578000000000     0.01272000000000
C3     C      0.46882000000000     0.72614000000000     0.58970000000000
C3     C      0.53118000000000     0.22614000000000     0.91030000000000
C3     C      0.53118000000000     0.27386000000000     0.41030000000000
C3     C      0.46882000000000     0.77386000000000     0.08970000000000
C4     C      0.67707000000000     0.69396000000000     0.62047000000000
C4     C      0.32293000000000     0.19396000000000     0.87953000000000
C4     C      0.32293000000000     0.30604000000000     0.37953000000000
C4     C      0.67707000000000     0.80604000000000     0.12047000000000
C5     C      0.74886000000000     0.41281000000000     0.51603000000000
C5     C      0.25114000000000     0.91281000000000     0.98397000000000
C5     C      0.25114000000000     0.58719000000000     0.48397000000000
C5     C      0.74886000000000     0.08719000000000     0.01603000000000
C6     C      0.26850000000000     0.76298000000000     0.56261000000000
C6     C      0.73150000000000     0.26298000000000     0.93739000000000
C6     C      0.73150000000000     0.23702000000000     0.43739000000000
C6     C      0.26850000000000     0.73702000000000     0.06261000000000
C7     C      0.37647000000000     0.82989000000000     0.61418000000000
C7     C      0.62353000000000     0.32989000000000     0.88582000000000
C7     C      0.62353000000000     0.17011000000000     0.38582000000000
C7     C      0.37647000000000     0.67011000000000     0.11418000000000
C8     C      0.58288000000000     0.80577000000000     0.64798000000000
C8     C      0.41712000000000     0.30577000000000     0.85202000000000
C8     C      0.41712000000000     0.19423000000000     0.35202000000000
C8     C      0.58288000000000     0.69423000000000     0.14798000000000
C9     C      0.78546000000000     0.76206000000000     0.67263000000000
C9     C      0.21454000000000     0.26206000000000     0.82737000000000
C9     C      0.21454000000000     0.23794000000000     0.32737000000000
C9     C      0.78546000000000     0.73794000000000     0.17263000000000
C10    C      0.85924000000000     0.48771000000000     0.57151000000000
C10    C      0.14076000000000     0.98771000000000     0.92849000000000
C10    C      0.14076000000000     0.51229000000000     0.42849000000000
C10    C      0.85924000000000     0.01229000000000     0.07151000000000
C11    C      0.87701000000000     0.65772000000000     0.64773000000000
C11    C      0.12299000000000     0.15772000000000     0.85227000000000
C11    C      0.12299000000000     0.34228000000000     0.35227000000000
C11    C      0.87701000000000     0.84228000000000     0.14773000000000
O12    O      0.60215000000000     0.95942000000000     0.71751000000000
O12    O      0.39785000000000     0.45942000000000     0.78249000000000
O12    O      0.39785000000000     0.04058000000000     0.28249000000000
O12    O      0.60215000000000     0.54058000000000     0.21751000000000
I13    I      0.14225000000000     0.92188000000000     0.60334000000000
I13    I      0.85775000000000     0.42188000000000     0.89666000000000
I13    I      0.85775000000000     0.07812000000000     0.39666000000000
I13    I      0.14225000000000     0.57812000000000     0.10334000000000
H14    H      0.39490000000000     0.96608000000000     0.67613000000000
H14    H      0.60510000000000     0.46608000000000     0.82387000000000
H14    H      0.60510000000000     0.03392000000000     0.32387000000000
H14    H      0.39490000000000     0.53392000000000     0.17613000000000
H15    H      0.93103000000000     0.40668000000000     0.55232000000000
H15    H      0.06897000000000     0.90668000000000     0.94768000000000
H15    H      0.06897000000000     0.59332000000000     0.44768000000000
H15    H      0.93103000000000     0.09332000000000     0.05232000000000
H16    H      0.96261000000000     0.71470000000000     0.69029000000000
H16    H      0.03739000000000     0.21470000000000     0.80971000000000
H16    H      0.03739000000000     0.28530000000000     0.30971000000000
H16    H      0.96261000000000     0.78530000000000     0.19029000000000
H17    H      0.80037000000000     0.89865000000000     0.73400000000000
H17    H      0.19963000000000     0.39865000000000     0.76600000000000
H17    H      0.19963000000000     0.10135000000000     0.26600000000000
H17    H      0.80037000000000     0.60135000000000     0.23400000000000
