data_default
_cell_volume           827.634619
_symmetry_space_group_name_H-M 'P 1'
_symmetry_Int_Tables_number 1
loop_
_symmetry_equiv_pos_site_id
_symmetry_equiv_pos_as_xyz
1 x,y,z
_cell_length_a         4.0820000000
_cell_length_b        15.8980000000
_cell_length_c        12.8810000000
_cell_angle_alpha        90.0000
_cell_angle_beta        81.9260
_cell_angle_gamma        90.0000
_cell_formula_units_Z 1
loop_
_atom_site_label
_atom_site_type_symbol
_atom_site_fract_x
_atom_site_fract_y
_atom_site_fract_z
C1     C      0.82005000000000     0.30666000000000     0.41944000000000
C1     C      0.17995000000000     0.80666000000000     0.58056000000000
C2     C      0.94260000000000     0.34158000000000     0.31948000000000
C2     C      0.05740000000000     0.84158000000000     0.68052000000000
C3     C      0.88805000000000     0.30059000000000     0.22981000000000
C3     C      0.11195000000000     0.80059000000000     0.77019000000000
C4     C      0.70700000000000     0.22213000000000     0.23589000000000
C4     C      0.29300000000000     0.72213000000000     0.76411000000000
C5     C      0.58600000000000     0.18779000000000     0.33527000000000
C5     C      0.41400000000000     0.68779000000000     0.66473000000000
C6     C      0.64773000000000     0.23238000000000     0.42731000000000
C6     C      0.35227000000000     0.73238000000000     0.57269000000000
C7     C      0.65161000000000     0.17975000000000     0.14083000000000
C7     C      0.34839000000000     0.67975000000000     0.85917000000000
C8     C      0.77796000000000     0.21549000000000     0.03633000000000
C8     C      0.22204000000000     0.71549000000000     0.96367000000000
C9     C      0.95355000000000     0.29114000000000     0.02817000000000
C9     C      0.04645000000000     0.79114000000000     0.97183000000000
C10    C      0.01576000000000     0.33684000000000     0.12489000000000
C10    C      0.98424000000000     0.83684000000000     0.87511000000000
C11    C      0.07515000000000     0.32570000000000     0.92850000000000
C11    C      0.92485000000000     0.82570000000000     0.07150000000000
C12    C      0.02429000000000     0.28604000000000     0.83731000000000
C12    C      0.97571000000000     0.78604000000000     0.16269000000000
C13    C      0.84358000000000     0.20745000000000     0.84190000000000
C13    C      0.15642000000000     0.70745000000000     0.15810000000000
C14    C      0.72258000000000     0.17310000000000     0.94128000000000
C14    C      0.27742000000000     0.67310000000000     0.05872000000000
C15    C      0.78185000000000     0.16285000000000     0.74986000000000
C15    C      0.21815000000000     0.66285000000000     0.25014000000000
C16    C      0.60954000000000     0.08858000000000     0.75773000000000
C16    C      0.39046000000000     0.58858000000000     0.24227000000000
C17    C      0.48698000000000     0.05365000000000     0.85769000000000
C17    C      0.51302000000000     0.55365000000000     0.14231000000000
C18    C      0.54153000000000     0.09465000000000     0.94735000000000
C18    C      0.45847000000000     0.59465000000000     0.05265000000000
C19    C      0.41382000000000     0.05840000000000     0.05228000000000
C19    C      0.58618000000000     0.55840000000000     0.94772000000000
C20    C      0.47602000000000     0.10409000000000     0.14900000000000
C20    C      0.52398000000000     0.60409000000000     0.85100000000000
C21    C      0.35443000000000     0.06953000000000     0.24867000000000
C21    C      0.64557000000000     0.56953000000000     0.75133000000000
C22    C      0.40529000000000     0.10919000000000     0.33986000000000
C22    C      0.59471000000000     0.60919000000000     0.66014000000000
O23    O      0.25928000000000     0.99170000000000     0.05891000000000
O23    O      0.74072000000000     0.49170000000000     0.94109000000000
O24    O      0.17030000000000     0.40354000000000     0.11826000000000
O24    O      0.82970000000000     0.90354000000000     0.88174000000000
I25    I      0.21124000000000     0.05060000000000     0.48073000000000
I25    I      0.78876000000000     0.55060000000000     0.51927000000000
I26    I      0.21833000000000     0.34464000000000     0.69644000000000
I26    I      0.78167000000000     0.84464000000000     0.30356000000000
H27    H      0.86353000000000     0.33914000000000     0.48986000000000
H27    H      0.13647000000000     0.83914000000000     0.51014000000000
H28    H      0.07807000000000     0.40013000000000     0.31411000000000
H28    H      0.92193000000000     0.90013000000000     0.68589000000000
H29    H      0.56046000000000     0.20870000000000     0.50473000000000
H29    H      0.43954000000000     0.70870000000000     0.49527000000000
H30    H      0.21021000000000     0.38431000000000     0.92438000000000
H30    H      0.78979000000000     0.88431000000000     0.07562000000000
H31    H      0.86912000000000     0.18654000000000     0.67243000000000
H31    H      0.13088000000000     0.68654000000000     0.32757000000000
H32    H      0.56605000000000     0.05610000000000     0.68730000000000
H32    H      0.43395000000000     0.55610000000000     0.31270000000000
H33    H      0.35151000000000     0.99511000000000     0.86306000000000
H33    H      0.64849000000000     0.49511000000000     0.13694000000000
H34    H      0.21937000000000     0.01093000000000     0.25280000000000
H34    H      0.78063000000000     0.51093000000000     0.74720000000000
