data_default
_cell_volume          1600.040709
_symmetry_space_group_name_H-M 'P 1'
_symmetry_Int_Tables_number 1
loop_
_symmetry_equiv_pos_site_id
_symmetry_equiv_pos_as_xyz
1 x,y,z
_cell_length_a        30.3080000000
_cell_length_b         4.0417000000
_cell_length_c        13.0620000000
_cell_angle_alpha        90.0000
_cell_angle_beta        90.0000
_cell_angle_gamma        90.0000
_cell_formula_units_Z 1
loop_
_atom_site_label
_atom_site_type_symbol
_atom_site_fract_x
_atom_site_fract_y
_atom_site_fract_z
H23    H      0.27846000000000     0.06454000000000     0.35924000000000
H23    H      0.72154000000000     0.93546000000000     0.85924000000000
H23    H      0.77846000000000     0.43546000000000     0.35924000000000
H23    H      0.22154000000000     0.56454000000000     0.85924000000000
C1     C      0.39767000000000     0.39895000000000     0.86573000000000
C1     C      0.60233000000000     0.60105000000000     0.36573000000000
C1     C      0.89767000000000     0.10105000000000     0.86573000000000
C1     C      0.10233000000000     0.89895000000000     0.36573000000000
C2     C      0.43707000000000     0.58108000000000     0.88486000000000
C2     C      0.56293000000000     0.41892000000000     0.38486000000000
C2     C      0.93707000000000     0.91892000000000     0.88486000000000
C2     C      0.06293000000000     0.08108000000000     0.38486000000000
C3     C      0.44787000000000     0.67716000000000     0.98640000000000
C3     C      0.55213000000000     0.32284000000000     0.48640000000000
C3     C      0.94787000000000     0.82284000000000     0.98640000000000
C3     C      0.05213000000000     0.17716000000000     0.48640000000000
C4     C      0.42026000000000     0.58982000000000     0.06925000000000
C4     C      0.57974000000000     0.41018000000000     0.56925000000000
C4     C      0.92026000000000     0.91018000000000     0.06925000000000
C4     C      0.07974000000000     0.08982000000000     0.56925000000000
C5     C      0.38098000000000     0.40905000000000     0.05070000000000
C5     C      0.61902000000000     0.59095000000000     0.55070000000000
C5     C      0.88098000000000     0.09095000000000     0.05070000000000
C5     C      0.11902000000000     0.90905000000000     0.55070000000000
C6     C      0.36959000000000     0.31568000000000     0.94898000000000
C6     C      0.63041000000000     0.68432000000000     0.44898000000000
C6     C      0.86959000000000     0.18432000000000     0.94898000000000
C6     C      0.13041000000000     0.81568000000000     0.44898000000000
C7     C      0.43118000000000     0.67986000000000     0.17035000000000
C7     C      0.56882000000000     0.32014000000000     0.67035000000000
C7     C      0.93118000000000     0.82014000000000     0.17035000000000
C7     C      0.06882000000000     0.17986000000000     0.67035000000000
C8     C      0.40434000000000     0.59032000000000     0.25327000000000
C8     C      0.59566000000000     0.40968000000000     0.75327000000000
C8     C      0.90434000000000     0.90968000000000     0.25327000000000
C8     C      0.09566000000000     0.09032000000000     0.75327000000000
C9     C      0.36483000000000     0.41231000000000     0.23592000000000
C9     C      0.63517000000000     0.58769000000000     0.73592000000000
C9     C      0.86483000000000     0.08769000000000     0.23592000000000
C9     C      0.13517000000000     0.91231000000000     0.73592000000000
C10    C      0.35318000000000     0.32147000000000     0.13406000000000
C10    C      0.64682000000000     0.67853000000000     0.63406000000000
C10    C      0.85318000000000     0.17853000000000     0.13406000000000
C10    C      0.14682000000000     0.82147000000000     0.63406000000000
C11    C      0.31373000000000     0.14012000000000     0.11489000000000
C11    C      0.68627000000000     0.85988000000000     0.61489000000000
C11    C      0.81373000000000     0.35988000000000     0.11489000000000
C11    C      0.18627000000000     0.64012000000000     0.61489000000000
C12    C      0.30245000000000     0.05079000000000     0.01317000000000
C12    C      0.69755000000000     0.94921000000000     0.51317000000000
C12    C      0.80245000000000     0.44921000000000     0.01317000000000
C12    C      0.19755000000000     0.55079000000000     0.51317000000000
C13    C      0.33012000000000     0.13731000000000     0.93040000000000
C13    C      0.66988000000000     0.86269000000000     0.43040000000000
C13    C      0.83012000000000     0.36269000000000     0.93040000000000
C13    C      0.16988000000000     0.63731000000000     0.43040000000000
C14    C      0.33651000000000     0.31988000000000     0.31673000000000
C14    C      0.66349000000000     0.68012000000000     0.81673000000000
C14    C      0.83651000000000     0.18012000000000     0.31673000000000
C14    C      0.16349000000000     0.81988000000000     0.81673000000000
C15    C      0.29809000000000     0.13600000000000     0.29919000000000
C15    C      0.70191000000000     0.86400000000000     0.79919000000000
C15    C      0.79809000000000     0.36400000000000     0.29919000000000
C15    C      0.20191000000000     0.63600000000000     0.79919000000000
C16    C      0.28684000000000     0.04919000000000     0.19887000000000
C16    C      0.71316000000000     0.95081000000000     0.69887000000000
C16    C      0.78684000000000     0.45081000000000     0.19887000000000
C16    C      0.21316000000000     0.54919000000000     0.69887000000000
H19    H      0.48203000000000     0.84432000000000     0.00372000000000
H19    H      0.51797000000000     0.15568000000000     0.50372000000000
H19    H      0.98203000000000     0.65568000000000     0.00372000000000
H19    H      0.01797000000000     0.34432000000000     0.50372000000000
H20    H      0.45930000000000     0.81298000000000     0.18444000000000
H20    H      0.54070000000000     0.18702000000000     0.68444000000000
H20    H      0.95930000000000     0.68702000000000     0.18444000000000
H20    H      0.04070000000000     0.31298000000000     0.68444000000000
H21    H      0.42745000000000     0.73515000000000     0.39922000000000
H21    H      0.57255000000000     0.26485000000000     0.89922000000000
H21    H      0.92745000000000     0.76485000000000     0.39922000000000
H21    H      0.07255000000000     0.23515000000000     0.89922000000000
H22    H      0.34349000000000     0.38405000000000     0.39018000000000
H22    H      0.65651000000000     0.61595000000000     0.89018000000000
H22    H      0.84349000000000     0.11595000000000     0.39018000000000
H22    H      0.15651000000000     0.88405000000000     0.89018000000000
H24    H      0.25859000000000     0.91566000000000     0.18741000000000
H24    H      0.74141000000000     0.08434000000000     0.68741000000000
H24    H      0.75859000000000     0.58434000000000     0.18741000000000
H24    H      0.24141000000000     0.41566000000000     0.68741000000000
H25    H      0.26793000000000     0.88797000000000     0.99598000000000
H25    H      0.73207000000000     0.11203000000000     0.49598000000000
H25    H      0.76793000000000     0.61203000000000     0.99598000000000
H25    H      0.23207000000000     0.38797000000000     0.49598000000000
C126   C      0.38646000000000     0.30111000000000     0.76417000000000
C126   C      0.61354000000000     0.69889000000000     0.26417000000000
C126   C      0.88646000000000     0.19889000000000     0.76417000000000
C126   C      0.11354000000000     0.80111000000000     0.26417000000000
C127   C      0.41545000000000     0.38392000000000     0.68365000000000
C127   C      0.58455000000000     0.61608000000000     0.18365000000000
C127   C      0.91545000000000     0.11608000000000     0.68365000000000
C127   C      0.08455000000000     0.88392000000000     0.18365000000000
C128   C      0.45400000000000     0.56665000000000     0.70100000000000
C128   C      0.54600000000000     0.43335000000000     0.20100000000000
C128   C      0.95400000000000     0.93335000000000     0.70100000000000
C128   C      0.04600000000000     0.06665000000000     0.20100000000000
C129   C      0.46448000000000     0.66376000000000     0.80095000000000
C129   C      0.53552000000000     0.33624000000000     0.30095000000000
C129   C      0.96448000000000     0.83624000000000     0.80095000000000
C129   C      0.03552000000000     0.16376000000000     0.30095000000000
C130   C      0.34678000000000     0.12514000000000     0.74680000000000
C130   C      0.65322000000000     0.87486000000000     0.24680000000000
C130   C      0.84678000000000     0.37486000000000     0.74680000000000
C130   C      0.15322000000000     0.62514000000000     0.24680000000000
C131   C      0.31923000000000     0.04631000000000     0.82944000000000
C131   C      0.68077000000000     0.95369000000000     0.32944000000000
C131   C      0.81923000000000     0.45369000000000     0.82944000000000
C131   C      0.18077000000000     0.54631000000000     0.32944000000000
H132   H      0.40886000000000     0.31296000000000     0.61059000000000
H132   H      0.59114000000000     0.68704000000000     0.11059000000000
H132   H      0.90886000000000     0.18704000000000     0.61059000000000
H132   H      0.09114000000000     0.81296000000000     0.11059000000000
H133   H      0.47426000000000     0.62950000000000     0.64106000000000
H133   H      0.52574000000000     0.37050000000000     0.14106000000000
H133   H      0.97426000000000     0.87050000000000     0.64106000000000
H133   H      0.02574000000000     0.12950000000000     0.14106000000000
H134   H      0.49270000000000     0.79753000000000     0.81228000000000
H134   H      0.50730000000000     0.20247000000000     0.31228000000000
H134   H      0.99270000000000     0.70247000000000     0.81228000000000
H134   H      0.00730000000000     0.29753000000000     0.31228000000000
I135   I      0.32431000000000     0.96463000000000     0.60180000000000
I135   I      0.67569000000000     0.03537000000000     0.10180000000000
I135   I      0.82431000000000     0.53537000000000     0.60180000000000
I135   I      0.17569000000000     0.46463000000000     0.10180000000000
H136   H      0.29075000000000     0.91850000000000     0.81528000000000
H136   H      0.70925000000000     0.08150000000000     0.31528000000000
H136   H      0.79075000000000     0.58150000000000     0.81528000000000
H136   H      0.20925000000000     0.41850000000000     0.31528000000000
