data_default
_cell_volume           368.472816
_symmetry_space_group_name_H-M 'P 1'
_symmetry_Int_Tables_number 1
loop_
_symmetry_equiv_pos_site_id
_symmetry_equiv_pos_as_xyz
1 x,y,z
_cell_length_a        13.9660000000
_cell_length_b         3.6080000000
_cell_length_c         9.6090000000
_cell_angle_alpha        65.5230
_cell_angle_beta        61.8160
_cell_angle_gamma        63.2880
_cell_formula_units_Z 1
loop_
_atom_site_label
_atom_site_type_symbol
_atom_site_fract_x
_atom_site_fract_y
_atom_site_fract_z
C1     C      0.04332000000000     0.92791000000000     0.03224000000000
C2     C      0.01372000000000     0.92434000000000     0.19521000000000
C3     C      0.89752000000000     0.06452000000000     0.29337000000000
C4     C      0.81068000000000     0.20815000000000     0.22960000000000
C5     C      0.84023000000000     0.21221000000000     0.06624000000000
C6     C      0.95670000000000     0.07188000000000     0.96773000000000
C7     C      0.15979000000000     0.78757000000000     0.93373000000000
C8     C      0.18926000000000     0.79173000000000     0.77040000000000
C9     C      0.10249000000000     0.93562000000000     0.70663000000000
C10    C      0.98621000000000     0.07591000000000     0.80482000000000
C11    C      0.89880000000000     0.22012000000000     0.74277000000000
C12    C      0.78361000000000     0.35944000000000     0.83890000000000
C13    C      0.75296000000000     0.35710000000000     0.00161000000000
C15    C      0.69438000000000     0.34911000000000     0.32606000000000
C16    C      0.60911000000000     0.49076000000000     0.26216000000000
C17    C      0.63767000000000     0.49518000000000     0.10169000000000
C18    C      0.10121000000000     0.77972000000000     0.25729000000000
C19    C      0.21641000000000     0.64070000000000     0.16110000000000
C20    C      0.24698000000000     0.64309000000000     0.99832000000000
C21    C      0.30563000000000     0.65104000000000     0.67394000000000
C22    C      0.39090000000000     0.50939000000000     0.73783000000000
C23    C      0.36235000000000     0.50460000000000     0.89828000000000
I24    I      0.33791000000000     0.43262000000000     0.27362000000000
I25    I      0.66210000000000     0.56723000000000     0.72644000000000
O26    O      0.12802000000000     0.93898000000000     0.56577000000000
O27    O      0.87199000000000     0.06117000000000     0.43422000000000
H8     H      0.08032000000000     0.77443000000000     0.38181000000000
H9     H      0.43142000000000     0.39210000000000     0.94240000000000
H10    H      0.47996000000000     0.40191000000000     0.66223000000000
H1     H      0.33104000000000     0.65008000000000     0.54873000000000
H2     H      0.91969000000000     0.22542000000000     0.61825000000000
H3     H      0.56859000000000     0.60804000000000     0.05760000000000
H4     H      0.52006000000000     0.59787000000000     0.33774000000000
H5     H      0.66897000000000     0.35006000000000     0.45127000000000
