data_default
_cell_volume           368.645633
_symmetry_space_group_name_H-M 'P 1'
_symmetry_Int_Tables_number 1
loop_
_symmetry_equiv_pos_site_id
_symmetry_equiv_pos_as_xyz
1 x,y,z
_cell_length_a         9.5360000000
_cell_length_b        14.2610000000
_cell_length_c         3.5810000000
_cell_angle_alpha        62.3190
_cell_angle_beta        68.5190
_cell_angle_gamma        60.2840
_cell_formula_units_Z 1
loop_
_atom_site_label
_atom_site_type_symbol
_atom_site_fract_x
_atom_site_fract_y
_atom_site_fract_z
C1     C      0.92484000000000     0.04403000000000     0.93773000000000
C2     C      0.78805000000000     0.01711000000000     0.03956000000000
C3     C      0.80187000000000     0.90219000000000     0.26614000000000
C4     C      0.95166000000000     0.81397000000000     0.39183000000000
C5     C      0.08890000000000     0.84082000000000     0.28970000000000
C6     C      0.07518000000000     0.95600000000000     0.06240000000000
C7     C      0.91111000000000     0.15921000000000     0.71044000000000
C8     C      0.04841000000000     0.18598000000000     0.60847000000000
C9     C      0.19812000000000     0.09781000000000     0.73370000000000
C10    C      0.21199000000000     0.98281000000000     0.96044000000000
C11    C      0.36059000000000     0.89404000000000     0.08740000000000
C12    C      0.37549000000000     0.78009000000000     0.31165000000000
C13    C      0.23999000000000     0.75213000000000     0.41548000000000
C15    C      0.96731000000000     0.69891000000000     0.61792000000000
C16    C      0.11569000000000     0.61226000000000     0.74068000000000
C17    C      0.25096000000000     0.63817000000000     0.64136000000000
C18    C      0.63933000000000     0.10598000000000     0.91271000000000
C19    C      0.62450000000000     0.21991000000000     0.68819000000000
C20    C      0.76014000000000     0.24780000000000     0.58454000000000
C21    C      0.03268000000000     0.30109000000000     0.38191000000000
C22    C      0.88430000000000     0.38775000000000     0.25915000000000
C23    C      0.74906000000000     0.36186000000000     0.35877000000000
I24    I      0.39122000000000     0.34376000000000     0.52023000000000
I25    I      0.60870000000000     0.65625000000000     0.47988000000000
O26    O      0.31641000000000     0.12102000000000     0.64560000000000
O27    O      0.68358000000000     0.87898000000000     0.35423000000000
H8     H      0.53313000000000     0.08714000000000     0.98768000000000
H9     H      0.63662000000000     0.43192000000000     0.25683000000000
H10    H      0.87410000000000     0.47583000000000     0.08549000000000
H1     H      0.13518000000000     0.32445000000000     0.29905000000000
H2     H      0.46679000000000     0.91288000000000     0.01243000000000
H3     H      0.36337000000000     0.56809000000000     0.74300000000000
H4     H      0.12592000000000     0.52420000000000     0.91464000000000
H5     H      0.86481000000000     0.67556000000000     0.70078000000000
