data_default
_cell_volume           369.069427
_symmetry_space_group_name_H-M 'P 1'
_symmetry_Int_Tables_number 1
loop_
_symmetry_equiv_pos_site_id
_symmetry_equiv_pos_as_xyz
1 x,y,z
_cell_length_a        13.3250000000
_cell_length_b         9.3600000000
_cell_length_c         3.6140000000
_cell_angle_alpha        69.1640
_cell_angle_beta        69.3770
_cell_angle_gamma        64.3420
_cell_formula_units_Z 1
loop_
_atom_site_label
_atom_site_type_symbol
_atom_site_fract_x
_atom_site_fract_y
_atom_site_fract_z
C1     C      0.04326000000000     0.03254000000000     0.87635000000000
C2     C      0.01344000000000     0.19603000000000     0.64374000000000
C3     C      0.89716000000000     0.29412000000000     0.65935000000000
C4     C      0.81043000000000     0.22976000000000     0.90640000000000
C5     C      0.84020000000000     0.06587000000000     0.13947000000000
C6     C      0.95676000000000     0.96743000000000     0.12387000000000
C7     C      0.15982000000000     0.93409000000000     0.86076000000000
C8     C      0.18950000000000     0.77024000000000     0.09392000000000
C9     C      0.10285000000000     0.70588000000000     0.34047000000000
C10    C      0.98648000000000     0.80400000000000     0.35618000000000
C11    C      0.89919000000000     0.74137000000000     0.60092000000000
C12    C      0.78391000000000     0.83742000000000     0.61843000000000
C13    C      0.75305000000000     0.00065000000000     0.38828000000000
C15    C      0.69405000000000     0.32614000000000     0.92497000000000
C16    C      0.60890000000000     0.26166000000000     0.16946000000000
C17    C      0.63767000000000     0.10067000000000     0.39940000000000
C18    C      0.10082000000000     0.25870000000000     0.39907000000000
C19    C      0.21610000000000     0.16258000000000     0.38139000000000
C20    C      0.24689000000000     0.99928000000000     0.61187000000000
C21    C      0.30596000000000     0.67386000000000     0.07485000000000
C22    C      0.39111000000000     0.73834000000000     0.83036000000000
C23    C      0.36235000000000     0.89930000000000     0.60082000000000
I24    I      0.33740000000000     0.27602000000000     0.99628000000000
I25    I      0.66261000000000     0.72404000000000     0.00371000000000
O26    O      0.12857000000000     0.56457000000000     0.54141000000000
O27    O      0.87144000000000     0.43543000000000     0.45841000000000
H8     H      0.07976000000000     0.38362000000000     0.21868000000000
H9     H      0.43133000000000     0.94387000000000     0.41579000000000
H10    H      0.48024000000000     0.66278000000000     0.81917000000000
H1     H      0.33154000000000     0.54825000000000     0.24920000000000
H2     H      0.92025000000000     0.61644000000000     0.78131000000000
H3     H      0.56868000000000     0.05613000000000     0.58403000000000
H4     H      0.51978000000000     0.33719000000000     0.18106000000000
H5     H      0.66848000000000     0.45175000000000     0.75062000000000
