data_default
_cell_volume          1534.407586
_symmetry_space_group_name_H-M 'P 1'
_symmetry_Int_Tables_number 1
loop_
_symmetry_equiv_pos_site_id
_symmetry_equiv_pos_as_xyz
1 x,y,z
_cell_length_a        16.5552800000
_cell_length_b         3.9815700000
_cell_length_c        24.0188100000
_cell_angle_alpha        90.0000
_cell_angle_beta        75.7350
_cell_angle_gamma        90.0000
_cell_formula_units_Z 1
loop_
_atom_site_label
_atom_site_type_symbol
_atom_site_fract_x
_atom_site_fract_y
_atom_site_fract_z
O1     O      0.90622800000000     0.45544800000000     0.81133600000000
O1     O      0.09377200000000     0.54455200000000     0.18866400000000
O1     O      0.09377200000000     0.95544800000000     0.68866400000000
O1     O      0.90622800000000     0.04455200000000     0.31133600000000
C2     C      0.84829100000000     0.29882800000000     0.79953800000000
C2     C      0.15170900000000     0.70117200000000     0.20046200000000
C2     C      0.15170900000000     0.79882800000000     0.70046200000000
C2     C      0.84829100000000     0.20117200000000     0.29953800000000
C3     C      0.77950900000000     0.19947900000000     0.84359700000000
C3     C      0.22049100000000     0.80052100000000     0.15640300000000
C3     C      0.22049100000000     0.69947900000000     0.65640300000000
C3     C      0.77950900000000     0.30052100000000     0.34359700000000
C4     C      0.77615700000000     0.27423300000000     0.90130000000000
C4     C      0.22384300000000     0.72576700000000     0.09870000000000
C4     C      0.22384300000000     0.77423300000000     0.59870000000000
C4     C      0.77615700000000     0.22576700000000     0.40130000000000
H4     H      0.82436300000000     0.40370500000000     0.91170500000000
H4     H      0.17563700000000     0.59629500000000     0.08829500000000
H4     H      0.17563700000000     0.90370500000000     0.58829500000000
H4     H      0.82436300000000     0.09629500000000     0.41170500000000
C5     C      0.70789700000000     0.17520500000000     0.94499600000000
C5     C      0.29210300000000     0.82479500000000     0.05500400000000
C5     C      0.29210300000000     0.67520500000000     0.55500400000000
C5     C      0.70789700000000     0.32479500000000     0.44499600000000
H5     H      0.70593900000000     0.23141000000000     0.98719500000000
H5     H      0.29406100000000     0.76859000000000     0.01280500000000
H5     H      0.29406100000000     0.73141000000000     0.51280500000000
H5     H      0.70593900000000     0.26859000000000     0.48719500000000
C6     C      0.64208300000000     0.00071700000000     0.93146100000000
C6     C      0.35791700000000     0.99928300000000     0.06853900000000
C6     C      0.35791700000000     0.50071700000000     0.56853900000000
C6     C      0.64208300000000     0.49928300000000     0.43146100000000
H6     H      0.59242600000000     0.93051800000000     0.96446600000000
H6     H      0.40757400000000     0.06948200000000     0.03553400000000
H6     H      0.40757400000000     0.43051800000000     0.53553400000000
H6     H      0.59242600000000     0.56948200000000     0.46446600000000
C7     C      0.64337100000000     0.92360800000000     0.87411900000000
C7     C      0.35662900000000     0.07639200000000     0.12588100000000
C7     C      0.35662900000000     0.42360800000000     0.62588100000000
C7     C      0.64337100000000     0.57639200000000     0.37411900000000
C8     C      0.71273500000000     0.02398300000000     0.82996000000000
C8     C      0.28726500000000     0.97601700000000     0.17004000000000
C8     C      0.28726500000000     0.52398300000000     0.67004000000000
C8     C      0.71273500000000     0.47601700000000     0.32996000000000
C9     C      0.71543500000000     0.95000100000000     0.77202400000000
C9     C      0.28456500000000     0.04999900000000     0.22797600000000
C9     C      0.28456500000000     0.45000100000000     0.72797600000000
C9     C      0.71543500000000     0.54999900000000     0.27202400000000
C10    C      0.78456400000000     0.05000300000000     0.72797600000000
C10    C      0.21543600000000     0.94999700000000     0.27202400000000
C10    C      0.21543600000000     0.55000300000000     0.77202400000000
C10    C      0.78456400000000     0.44999700000000     0.22797600000000
C11    C      0.85107800000000     0.22437100000000     0.74188300000000
C11    C      0.14892200000000     0.77562900000000     0.25811700000000
C11    C      0.14892200000000     0.72437100000000     0.75811700000000
C11    C      0.85107800000000     0.27562900000000     0.24188300000000
C12    C      0.91947000000000     0.32260000000000     0.69767000000000
C12    C      0.08053000000000     0.67740000000000     0.30233000000000
C12    C      0.08053000000000     0.82260000000000     0.80233000000000
C12    C      0.91947000000000     0.17740000000000     0.19767000000000
H12    H      0.96853200000000     0.44997700000000     0.70738000000000
H12    H      0.03146800000000     0.55002300000000     0.29262000000000
H12    H      0.03146800000000     0.94997700000000     0.79262000000000
H12    H      0.96853200000000     0.05002300000000     0.20738000000000
C13    C      0.92278000000000     0.25022500000000     0.64024800000000
C13    C      0.07722000000000     0.74977500000000     0.35975200000000
C13    C      0.07722000000000     0.75022500000000     0.85975200000000
C13    C      0.92278000000000     0.24977500000000     0.14024800000000
I14    I      0.02862200000000     0.40948900000000     0.57843900000000
I14    I      0.97137800000000     0.59051100000000     0.42156100000000
I14    I      0.97137800000000     0.90948900000000     0.92156100000000
I14    I      0.02862200000000     0.09051100000000     0.07843900000000
C15    C      0.85662900000000     0.07639400000000     0.62588100000000
C15    C      0.14337100000000     0.92360600000000     0.37411900000000
C15    C      0.14337100000000     0.57639400000000     0.87411900000000
C15    C      0.85662900000000     0.42360600000000     0.12588100000000
C16    C      0.85791800000000     0.99928300000000     0.56853900000000
C16    C      0.14208200000000     0.00071700000000     0.43146100000000
C16    C      0.14208200000000     0.49928300000000     0.93146100000000
C16    C      0.85791800000000     0.50071700000000     0.06853900000000
H16    H      0.90757300000000     0.06948600000000     0.53553400000000
H16    H      0.09242700000000     0.93051400000000     0.46446600000000
H16    H      0.09242700000000     0.56948600000000     0.96446600000000
H16    H      0.90757300000000     0.43051400000000     0.03553400000000
C17    C      0.79210300000000     0.82479600000000     0.55500400000000
C17    C      0.20789700000000     0.17520400000000     0.44499600000000
C17    C      0.20789700000000     0.32479600000000     0.94499600000000
C17    C      0.79210300000000     0.67520400000000     0.05500400000000
H17    H      0.79406100000000     0.76859000000000     0.51280500000000
H17    H      0.20593900000000     0.23141000000000     0.48719500000000
H17    H      0.20593900000000     0.26859000000000     0.98719500000000
H17    H      0.79406100000000     0.73141000000000     0.01280500000000
C18    C      0.72384300000000     0.72576800000000     0.59869900000000
C18    C      0.27615700000000     0.27423200000000     0.40130100000000
C18    C      0.27615700000000     0.22576800000000     0.90130100000000
C18    C      0.72384300000000     0.77423200000000     0.09869900000000
H18    H      0.67563700000000     0.59629500000000     0.58829400000000
H18    H      0.32436300000000     0.40370500000000     0.41170600000000
H18    H      0.32436300000000     0.09629500000000     0.91170600000000
H18    H      0.67563700000000     0.90370500000000     0.08829400000000
C19    C      0.72049100000000     0.80052500000000     0.65640300000000
C19    C      0.27950900000000     0.19947500000000     0.34359700000000
C19    C      0.27950900000000     0.30052500000000     0.84359700000000
C19    C      0.72049100000000     0.69947500000000     0.15640300000000
C20    C      0.78726400000000     0.97602000000000     0.67004000000000
C20    C      0.21273600000000     0.02398000000000     0.32996000000000
C20    C      0.21273600000000     0.47602000000000     0.82996000000000
C20    C      0.78726400000000     0.52398000000000     0.17004000000000
C21    C      0.65170900000000     0.70117400000000     0.70046200000000
C21    C      0.34829100000000     0.29882600000000     0.29953800000000
C21    C      0.34829100000000     0.20117400000000     0.79953800000000
C21    C      0.65170900000000     0.79882600000000     0.20046200000000
O22    O      0.59377100000000     0.54455300000000     0.68866400000000
O22    O      0.40622900000000     0.45544700000000     0.31133600000000
O22    O      0.40622900000000     0.04455300000000     0.81133600000000
O22    O      0.59377100000000     0.95544700000000     0.18866400000000
C23    C      0.64892200000000     0.77563200000000     0.75811700000000
C23    C      0.35107800000000     0.22436800000000     0.24188300000000
C23    C      0.35107800000000     0.27563200000000     0.74188300000000
C23    C      0.64892200000000     0.72436800000000     0.25811700000000
C24    C      0.58053000000000     0.67740400000000     0.80232900000000
C24    C      0.41947000000000     0.32259600000000     0.19767100000000
C24    C      0.41947000000000     0.17740400000000     0.69767100000000
C24    C      0.58053000000000     0.82259600000000     0.30232900000000
H24    H      0.53146800000000     0.55002500000000     0.79262000000000
H24    H      0.46853200000000     0.44997500000000     0.20738000000000
H24    H      0.46853200000000     0.05002500000000     0.70738000000000
H24    H      0.53146800000000     0.94997500000000     0.29262000000000
C25    C      0.57721900000000     0.74978200000000     0.85975200000000
C25    C      0.42278100000000     0.25021800000000     0.14024800000000
C25    C      0.42278100000000     0.24978200000000     0.64024800000000
C25    C      0.57721900000000     0.75021800000000     0.35975200000000
I26    I      0.47137900000000     0.59050700000000     0.92156100000000
I26    I      0.52862100000000     0.40949300000000     0.07843900000000
I26    I      0.52862100000000     0.09050700000000     0.57843900000000
I26    I      0.47137900000000     0.90949300000000     0.42156100000000
