data_default
_cell_volume           798.909572
_symmetry_space_group_name_H-M 'P 1'
_symmetry_Int_Tables_number 1
loop_
_symmetry_equiv_pos_site_id
_symmetry_equiv_pos_as_xyz
1 x,y,z
_cell_length_a         4.1271000000
_cell_length_b        14.4377000000
_cell_length_c        13.8236000000
_cell_angle_alpha        90.0000
_cell_angle_beta       104.0900
_cell_angle_gamma        90.0000
_cell_formula_units_Z 1
loop_
_atom_site_label
_atom_site_type_symbol
_atom_site_fract_x
_atom_site_fract_y
_atom_site_fract_z
I33    I      0.21673000000000     0.11289000000000     0.44762000000000
I33    I      0.78327000000000     0.88711000000000     0.55238000000000
I33    I      0.78327000000000     0.61289000000000     0.05238000000000
I33    I      0.21673000000000     0.38711000000000     0.94762000000000
O31    O      0.75692000000000     0.34847000000000     0.70622000000000
O31    O      0.24308000000000     0.65153000000000     0.29378000000000
O31    O      0.24308000000000     0.84847000000000     0.79378000000000
O31    O      0.75692000000000     0.15153000000000     0.20622000000000
C1     C      0.02923000000000     0.45023000000000     0.49232000000000
C1     C      0.97077000000000     0.54977000000000     0.50768000000000
C1     C      0.97077000000000     0.95023000000000     0.00768000000000
C1     C      0.02923000000000     0.04977000000000     0.99232000000000
C3     C      0.16058000000000     0.42084000000000     0.40891000000000
C3     C      0.83942000000000     0.57916000000000     0.59109000000000
C3     C      0.83942000000000     0.92084000000000     0.09109000000000
C3     C      0.16058000000000     0.07916000000000     0.90891000000000
C5     C      0.95902000000000     0.38279000000000     0.55785000000000
C5     C      0.04098000000000     0.61721000000000     0.44215000000000
C5     C      0.04098000000000     0.88279000000000     0.94215000000000
C5     C      0.95902000000000     0.11721000000000     0.05785000000000
C7     C      0.82058000000000     0.40889000000000     0.64698000000000
C7     C      0.17942000000000     0.59111000000000     0.35302000000000
C7     C      0.17942000000000     0.90889000000000     0.85302000000000
C7     C      0.82058000000000     0.09111000000000     0.14698000000000
C9     C      0.23584000000000     0.48783000000000     0.34001000000000
C9     C      0.76416000000000     0.51217000000000     0.65999000000000
C9     C      0.76416000000000     0.98783000000000     0.15999000000000
C9     C      0.23584000000000     0.01217000000000     0.84001000000000
C11    C      0.21813000000000     0.32348000000000     0.39363000000000
C11    C      0.78187000000000     0.67652000000000     0.60637000000000
C11    C      0.78187000000000     0.82348000000000     0.10637000000000
C11    C      0.21813000000000     0.17652000000000     0.89363000000000
C13    C      0.01586000000000     0.28662000000000     0.54275000000000
C13    C      0.98414000000000     0.71338000000000     0.45725000000000
C13    C      0.98414000000000     0.78662000000000     0.95725000000000
C13    C      0.01586000000000     0.21338000000000     0.04275000000000
C15    C      0.14140000000000     0.25622000000000     0.46361000000000
C15    C      0.85860000000000     0.74378000000000     0.53639000000000
C15    C      0.85860000000000     0.75622000000000     0.03639000000000
C15    C      0.14140000000000     0.24378000000000     0.96361000000000
C17    C      0.36234000000000     0.45902000000000     0.25980000000000
C17    C      0.63766000000000     0.54098000000000     0.74020000000000
C17    C      0.63766000000000     0.95902000000000     0.24020000000000
C17    C      0.36234000000000     0.04098000000000     0.75980000000000
C19    C      0.34851000000000     0.29749000000000     0.31004000000000
C19    C      0.65149000000000     0.70251000000000     0.68996000000000
C19    C      0.65149000000000     0.79749000000000     0.18996000000000
C19    C      0.34851000000000     0.20251000000000     0.81004000000000
C21    C      0.41896000000000     0.36347000000000     0.24470000000000
C21    C      0.58104000000000     0.63653000000000     0.75530000000000
C21    C      0.58104000000000     0.86347000000000     0.25530000000000
C21    C      0.41896000000000     0.13653000000000     0.74470000000000
H23    H      0.95523000000000     0.23793000000000     0.59694000000000
H23    H      0.04477000000000     0.76207000000000     0.40306000000000
H23    H      0.04477000000000     0.73793000000000     0.90306000000000
H23    H      0.95523000000000     0.26207000000000     0.09694000000000
H25    H      0.41676000000000     0.51207000000000     0.20881000000000
H25    H      0.58324000000000     0.48793000000000     0.79119000000000
H25    H      0.58324000000000     0.01207000000000     0.29119000000000
H25    H      0.41676000000000     0.98793000000000     0.70881000000000
H27    H      0.39155000000000     0.22354000000000     0.29889000000000
H27    H      0.60845000000000     0.77646000000000     0.70111000000000
H27    H      0.60845000000000     0.72354000000000     0.20111000000000
H27    H      0.39155000000000     0.27646000000000     0.79889000000000
H29    H      0.51843000000000     0.34200000000000     0.18135000000000
H29    H      0.48157000000000     0.65800000000000     0.81865000000000
H29    H      0.48157000000000     0.84200000000000     0.31865000000000
H29    H      0.51843000000000     0.15800000000000     0.68135000000000
