data_default
_cell_volume          1573.128005
_symmetry_space_group_name_H-M 'P 1'
_symmetry_Int_Tables_number 1
loop_
_symmetry_equiv_pos_site_id
_symmetry_equiv_pos_as_xyz
1 x,y,z
_cell_length_a         8.4895800000
_cell_length_b        14.0423600000
_cell_length_c        14.2304900000
_cell_angle_alpha        90.0000
_cell_angle_beta        68.0170
_cell_angle_gamma        90.0000
_cell_formula_units_Z 1
loop_
_atom_site_label
_atom_site_type_symbol
_atom_site_fract_x
_atom_site_fract_y
_atom_site_fract_z
O1     O      0.06846500000000     0.65308100000000     0.80516800000000
O1     O      0.93153500000000     0.34691900000000     0.19483200000000
O1     O      0.93153500000000     0.15308100000000     0.69483200000000
O1     O      0.06846500000000     0.84691900000000     0.30516800000000
C2     C      0.97796400000000     0.59141400000000     0.86149700000000
C2     C      0.02203600000000     0.40858600000000     0.13850300000000
C2     C      0.02203600000000     0.09141400000000     0.63850300000000
C2     C      0.97796400000000     0.90858600000000     0.36149700000000
C3     C      0.02437900000000     0.49493700000000     0.84446300000000
C3     C      0.97562100000000     0.50506300000000     0.15553700000000
C3     C      0.97562100000000     0.99493700000000     0.65553700000000
C3     C      0.02437900000000     0.00506300000000     0.34446300000000
C4     C      0.17259700000000     0.46763500000000     0.76329900000000
C4     C      0.82740300000000     0.53236500000000     0.23670100000000
C4     C      0.82740300000000     0.96763500000000     0.73670100000000
C4     C      0.17259700000000     0.03236500000000     0.26329900000000
H4     H      0.24890700000000     0.51835500000000     0.71515500000000
H4     H      0.75109300000000     0.48164500000000     0.28484500000000
H4     H      0.75109300000000     0.01835500000000     0.78484500000000
H4     H      0.24890700000000     0.98164500000000     0.21515500000000
C5     C      0.21847900000000     0.37178500000000     0.74694000000000
C5     C      0.78152100000000     0.62821500000000     0.25306000000000
C5     C      0.78152100000000     0.87178500000000     0.75306000000000
C5     C      0.21847900000000     0.12821500000000     0.24694000000000
H5     H      0.32783200000000     0.35223400000000     0.68753700000000
H5     H      0.67216800000000     0.64776600000000     0.31246300000000
H5     H      0.67216800000000     0.85223400000000     0.81246300000000
H5     H      0.32783200000000     0.14776600000000     0.18753700000000
C6     C      0.11633900000000     0.30220400000000     0.81134800000000
C6     C      0.88366100000000     0.69779600000000     0.18865200000000
C6     C      0.88366100000000     0.80220400000000     0.68865200000000
C6     C      0.11633900000000     0.19779600000000     0.31134800000000
H6     H      0.15296400000000     0.23198700000000     0.79755800000000
H6     H      0.84703600000000     0.76801300000000     0.20244200000000
H6     H      0.84703600000000     0.73198700000000     0.70244200000000
H6     H      0.15296400000000     0.26801300000000     0.29755800000000
C7     C      0.96746800000000     0.32722900000000     0.89318600000000
C7     C      0.03253200000000     0.67277100000000     0.10681400000000
C7     C      0.03253200000000     0.82722900000000     0.60681400000000
C7     C      0.96746800000000     0.17277100000000     0.39318600000000
C8     C      0.92162300000000     0.42447200000000     0.90972100000000
C8     C      0.07837700000000     0.57552800000000     0.09027900000000
C8     C      0.07837700000000     0.92447200000000     0.59027900000000
C8     C      0.92162300000000     0.07552800000000     0.40972100000000
C9     C      0.77301300000000     0.45156700000000     0.99165600000000
C9     C      0.22698700000000     0.54843300000000     0.00834400000000
C9     C      0.22698700000000     0.95156700000000     0.50834400000000
C9     C      0.77301300000000     0.04843300000000     0.49165600000000
C10    C      0.72698500000000     0.54843300000000     0.00834700000000
C10    C      0.27301500000000     0.45156700000000     0.99165300000000
C10    C      0.27301500000000     0.04843300000000     0.49165300000000
C10    C      0.72698500000000     0.95156700000000     0.50834700000000
C11    C      0.82995300000000     0.61834200000000     0.94292800000000
C11    C      0.17004700000000     0.38165800000000     0.05707200000000
C11    C      0.17004700000000     0.11834200000000     0.55707200000000
C11    C      0.82995300000000     0.88165800000000     0.44292800000000
C12    C      0.78323500000000     0.71450700000000     0.96027600000000
C12    C      0.21676500000000     0.28549300000000     0.03972400000000
C12    C      0.21676500000000     0.21450700000000     0.53972400000000
C12    C      0.78323500000000     0.78549300000000     0.46027600000000
H12    H      0.85813500000000     0.76608000000000     0.91284200000000
H12    H      0.14186500000000     0.23392000000000     0.08715800000000
H12    H      0.14186500000000     0.26608000000000     0.58715800000000
H12    H      0.85813500000000     0.73392000000000     0.41284200000000
C13    C      0.63646400000000     0.74207400000000     0.04099500000000
C13    C      0.36353600000000     0.25792600000000     0.95900500000000
C13    C      0.36353600000000     0.24207400000000     0.45900500000000
C13    C      0.63646400000000     0.75792600000000     0.54099500000000
I14    I      0.58155700000000     0.88805400000000     0.05746600000000
I14    I      0.41844300000000     0.11194600000000     0.94253400000000
I14    I      0.41844300000000     0.38805400000000     0.44253400000000
I14    I      0.58155700000000     0.61194600000000     0.55746600000000
C15    C      0.53253000000000     0.67277100000000     0.10681700000000
C15    C      0.46747000000000     0.32722900000000     0.89318300000000
C15    C      0.46747000000000     0.17277100000000     0.39318300000000
C15    C      0.53253000000000     0.82722900000000     0.60681700000000
C16    C      0.38365800000000     0.69779500000000     0.18865400000000
C16    C      0.61634200000000     0.30220500000000     0.81134600000000
C16    C      0.61634200000000     0.19779500000000     0.31134600000000
C16    C      0.38365800000000     0.80220500000000     0.68865400000000
H16    H      0.34703400000000     0.76801300000000     0.20244400000000
H16    H      0.65296600000000     0.23198700000000     0.79755600000000
H16    H      0.65296600000000     0.26801300000000     0.29755600000000
H16    H      0.34703400000000     0.73198700000000     0.70244400000000
C17    C      0.28151700000000     0.62821400000000     0.25306100000000
C17    C      0.71848300000000     0.37178600000000     0.74693900000000
C17    C      0.71848300000000     0.12821400000000     0.24693900000000
C17    C      0.28151700000000     0.87178600000000     0.75306100000000
H17    H      0.17216300000000     0.64776500000000     0.31246300000000
H17    H      0.82783700000000     0.35223500000000     0.68753700000000
H17    H      0.82783700000000     0.14776500000000     0.18753700000000
H17    H      0.17216300000000     0.85223500000000     0.81246300000000
C18    C      0.32739800000000     0.53236400000000     0.23670200000000
C18    C      0.67260200000000     0.46763600000000     0.76329800000000
C18    C      0.67260200000000     0.03236400000000     0.26329800000000
C18    C      0.32739800000000     0.96763600000000     0.73670200000000
H18    H      0.25108800000000     0.48164400000000     0.28484500000000
H18    H      0.74891200000000     0.51835600000000     0.71515500000000
H18    H      0.74891200000000     0.98164400000000     0.21515500000000
H18    H      0.25108800000000     0.01835600000000     0.78484500000000
C19    C      0.47561800000000     0.50506200000000     0.15553900000000
C19    C      0.52438200000000     0.49493800000000     0.84446100000000
C19    C      0.52438200000000     0.00506200000000     0.34446100000000
C19    C      0.47561800000000     0.99493800000000     0.65553900000000
C20    C      0.57837500000000     0.57552800000000     0.09028100000000
C20    C      0.42162500000000     0.42447200000000     0.90971900000000
C20    C      0.42162500000000     0.07552800000000     0.40971900000000
C20    C      0.57837500000000     0.92447200000000     0.59028100000000
C21    C      0.52203300000000     0.40858500000000     0.13850500000000
C21    C      0.47796700000000     0.59141500000000     0.86149500000000
C21    C      0.47796700000000     0.90858500000000     0.36149500000000
C21    C      0.52203300000000     0.09141500000000     0.63850500000000
O22    O      0.43153100000000     0.34691800000000     0.19483300000000
O22    O      0.56846900000000     0.65308200000000     0.80516700000000
O22    O      0.56846900000000     0.84691800000000     0.30516700000000
O22    O      0.43153100000000     0.15308200000000     0.69483300000000
C23    C      0.67004500000000     0.38165800000000     0.05707500000000
C23    C      0.32995500000000     0.61834200000000     0.94292500000000
C23    C      0.32995500000000     0.88165800000000     0.44292500000000
C23    C      0.67004500000000     0.11834200000000     0.55707500000000
C24    C      0.71676300000000     0.28549300000000     0.03972700000000
C24    C      0.28323700000000     0.71450700000000     0.96027300000000
C24    C      0.28323700000000     0.78549300000000     0.46027300000000
C24    C      0.71676300000000     0.21450700000000     0.53972700000000
H24    H      0.64186200000000     0.23391900000000     0.08716000000000
H24    H      0.35813800000000     0.76608100000000     0.91284000000000
H24    H      0.35813800000000     0.73391900000000     0.41284000000000
H24    H      0.64186200000000     0.26608100000000     0.58716000000000
C25    C      0.86353700000000     0.25792600000000     0.95901000000000
C25    C      0.13646300000000     0.74207400000000     0.04099000000000
C25    C      0.13646300000000     0.75792600000000     0.54099000000000
C25    C      0.86353700000000     0.24207400000000     0.45901000000000
I26    I      0.91843600000000     0.11194500000000     0.94253300000000
I26    I      0.08156400000000     0.88805500000000     0.05746700000000
I26    I      0.08156400000000     0.61194500000000     0.55746700000000
I26    I      0.91843600000000     0.38805500000000     0.44253300000000
