data_default
_cell_volume           255.946826
_symmetry_space_group_name_H-M 'P 1'
_symmetry_Int_Tables_number 1
loop_
_symmetry_equiv_pos_site_id
_symmetry_equiv_pos_as_xyz
1 x,y,z
_cell_length_a         6.6824000000
_cell_length_b         5.3949000000
_cell_length_c         7.0996000000
_cell_angle_alpha        90.0000
_cell_angle_beta        90.0011
_cell_angle_gamma        90.0000
_cell_formula_units_Z 1
loop_
_atom_site_label
_atom_site_type_symbol
_atom_site_fract_x
_atom_site_fract_y
_atom_site_fract_z
H      H      0.86372000000000     0.28435000000000     0.76068000000000
H      H      0.13628000000000     0.78435000000000     0.23932000000000
C      C      0.93103000000000     0.12392000000000     0.68965000000000
C      C      0.06897000000000     0.62392000000000     0.31035000000000
H      H      0.86372000000000     0.10601000000000     0.54921000000000
H      H      0.13628000000000     0.60601000000000     0.45079000000000
C      C      0.93104000000000     0.87607000000000     0.81036000000000
C      C      0.06896000000000     0.37607000000000     0.18964000000000
C      C      0.15887000000000     0.11086000000000     0.69601000000000
C      C      0.84113000000000     0.61086000000000     0.30399000000000
H      H      0.86372000000000     0.89398000000000     0.95078000000000
H      H      0.13628000000000     0.39398000000000     0.04922000000000
C      C      0.15887000000000     0.88916000000000     0.80398000000000
C      C      0.84113000000000     0.38916000000000     0.19602000000000
H      H      0.86372000000000     0.71565000000000     0.73933000000000
H      H      0.13628000000000     0.21565000000000     0.26067000000000
C      C      0.35219000000000     0.17493000000000     0.66481000000000
C      C      0.64781000000000     0.67493000000000     0.33519000000000
C      C      0.35218000000000     0.82505000000000     0.83520000000000
C      C      0.64782000000000     0.32505000000000     0.16480000000000
O      O      0.47246000000000     0.99998000000000     0.75001000000000
O      O      0.52754000000000     0.49998000000000     0.24999000000000
H      H      0.43215000000000     0.32212000000000     0.59313000000000
H      H      0.56785000000000     0.82212000000000     0.40687000000000
H      H      0.43214000000000     0.67787000000000     0.90687000000000
H      H      0.56786000000000     0.17787000000000     0.09313000000000
