data_default
_cell_volume           932.626014
_symmetry_space_group_name_H-M 'P 1'
_symmetry_Int_Tables_number 1
loop_
_symmetry_equiv_pos_site_id
_symmetry_equiv_pos_as_xyz
1 x,y,z
_cell_length_a        14.3360000000
_cell_length_b         5.1820000000
_cell_length_c        12.5540000000
_cell_angle_alpha        90.0000
_cell_angle_beta        90.0000
_cell_angle_gamma        90.0000
_cell_formula_units_Z 1
loop_
_atom_site_label
_atom_site_type_symbol
_atom_site_fract_x
_atom_site_fract_y
_atom_site_fract_z
O      O      0.11940000000000     0.98390000000000     0.78220000000000
O      O      0.88060000000000     0.01610000000000     0.21780000000000
O      O      0.38060000000000     0.01610000000000     0.28220000000000
O      O      0.61940000000000     0.51610000000000     0.21780000000000
O      O      0.88060000000000     0.48390000000000     0.71780000000000
O      O      0.38060000000000     0.48390000000000     0.78220000000000
O      O      0.61940000000000     0.98390000000000     0.71780000000000
O      O      0.11940000000000     0.51610000000000     0.28220000000000
C      C      0.07780000000000     0.19740000000000     0.82340000000000
C      C      0.92220000000000     0.80260000000000     0.17660000000000
C      C      0.42220000000000     0.80260000000000     0.32340000000000
C      C      0.57780000000000     0.30260000000000     0.17660000000000
C      C      0.92220000000000     0.69740000000000     0.67660000000000
C      C      0.42220000000000     0.69740000000000     0.82340000000000
C      C      0.57780000000000     0.19740000000000     0.67660000000000
C      C      0.07780000000000     0.30260000000000     0.32340000000000
C      C      0.16120000000000     0.85020000000000     0.86220000000000
C      C      0.83880000000000     0.14980000000000     0.13780000000000
C      C      0.33880000000000     0.14980000000000     0.36220000000000
C      C      0.66120000000000     0.64980000000000     0.13780000000000
C      C      0.83880000000000     0.35020000000000     0.63780000000000
C      C      0.33880000000000     0.35020000000000     0.86220000000000
C      C      0.66120000000000     0.85020000000000     0.63780000000000
C      C      0.16120000000000     0.64980000000000     0.36220000000000
H      H      0.19630000000000     0.67770000000000     0.83860000000000
H      H      0.80370000000000     0.32230000000000     0.16140000000000
H      H      0.30370000000000     0.32230000000000     0.33860000000000
H      H      0.69630000000000     0.82230000000000     0.16140000000000
H      H      0.80370000000000     0.17770000000000     0.66140000000000
H      H      0.30370000000000     0.17770000000000     0.83860000000000
H      H      0.69630000000000     0.67770000000000     0.66140000000000
H      H      0.19630000000000     0.82230000000000     0.33860000000000
H      H      0.04260000000000     0.31730000000000     0.76730000000000
H      H      0.95740000000000     0.68270000000000     0.23270000000000
H      H      0.45740000000000     0.68270000000000     0.26730000000000
H      H      0.54260000000000     0.18270000000000     0.23270000000000
H      H      0.95740000000000     0.81730000000000     0.73270000000000
H      H      0.45740000000000     0.81730000000000     0.76730000000000
H      H      0.54260000000000     0.31730000000000     0.73270000000000
H      H      0.04260000000000     0.18270000000000     0.26730000000000
C      C      0.14640000000000     0.97740000000000     0.95310000000000
C      C      0.85360000000000     0.02260000000000     0.04690000000000
C      C      0.35360000000000     0.02260000000000     0.45310000000000
C      C      0.64640000000000     0.52260000000000     0.04690000000000
C      C      0.85360000000000     0.47740000000000     0.54690000000000
C      C      0.35360000000000     0.47740000000000     0.95310000000000
C      C      0.64640000000000     0.97740000000000     0.54690000000000
C      C      0.14640000000000     0.52260000000000     0.45310000000000
C      C      0.09310000000000     0.19930000000000     0.92820000000000
C      C      0.90690000000000     0.80070000000000     0.07180000000000
C      C      0.40690000000000     0.80070000000000     0.42820000000000
C      C      0.59310000000000     0.30070000000000     0.07180000000000
C      C      0.90690000000000     0.69930000000000     0.57180000000000
C      C      0.40690000000000     0.69930000000000     0.92820000000000
C      C      0.59310000000000     0.19930000000000     0.57180000000000
C      C      0.09310000000000     0.30070000000000     0.42820000000000
C      C      0.09020000000000     0.28940000000000     0.04360000000000
C      C      0.90980000000000     0.71060000000000     0.95640000000000
C      C      0.40980000000000     0.71060000000000     0.54360000000000
C      C      0.59020000000000     0.21060000000000     0.95640000000000
C      C      0.90980000000000     0.78940000000000     0.45640000000000
C      C      0.40980000000000     0.78940000000000     0.04360000000000
C      C      0.59020000000000     0.28940000000000     0.45640000000000
C      C      0.09020000000000     0.21060000000000     0.54360000000000
C      C      0.14990000000000     0.04120000000000     0.07130000000000
C      C      0.85010000000000     0.95880000000000     0.92870000000000
C      C      0.35010000000000     0.95880000000000     0.57130000000000
C      C      0.64990000000000     0.45880000000000     0.92870000000000
C      C      0.85010000000000     0.54120000000000     0.42870000000000
C      C      0.35010000000000     0.54120000000000     0.07130000000000
C      C      0.64990000000000     0.04120000000000     0.42870000000000
C      C      0.14990000000000     0.45880000000000     0.57130000000000
H      H      0.02160000000000     0.29340000000000     0.07960000000000
H      H      0.97840000000000     0.70660000000000     0.92040000000000
H      H      0.47840000000000     0.70660000000000     0.57960000000000
H      H      0.52160000000000     0.20660000000000     0.92040000000000
H      H      0.97840000000000     0.79340000000000     0.42040000000000
H      H      0.47840000000000     0.79340000000000     0.07960000000000
H      H      0.52160000000000     0.29340000000000     0.42040000000000
H      H      0.02160000000000     0.20660000000000     0.57960000000000
H      H      0.12520000000000     0.47050000000000     0.05960000000000
H      H      0.87480000000000     0.52950000000000     0.94040000000000
H      H      0.37480000000000     0.52950000000000     0.55960000000000
H      H      0.62520000000000     0.02950000000000     0.94040000000000
H      H      0.87480000000000     0.97050000000000     0.44040000000000
H      H      0.37480000000000     0.97050000000000     0.05960000000000
H      H      0.62520000000000     0.47050000000000     0.44040000000000
H      H      0.12520000000000     0.02950000000000     0.55960000000000
H      H      0.21860000000000     0.08170000000000     0.10290000000000
H      H      0.78140000000000     0.91830000000000     0.89710000000000
H      H      0.28140000000000     0.91830000000000     0.60290000000000
H      H      0.71860000000000     0.41830000000000     0.89710000000000
H      H      0.78140000000000     0.58170000000000     0.39710000000000
H      H      0.28140000000000     0.58170000000000     0.10290000000000
H      H      0.71860000000000     0.08170000000000     0.39710000000000
H      H      0.21860000000000     0.41830000000000     0.60290000000000
H      H      0.11500000000000     0.90460000000000     0.12310000000000
H      H      0.88500000000000     0.09540000000000     0.87690000000000
H      H      0.38500000000000     0.09540000000000     0.62310000000000
H      H      0.61500000000000     0.59540000000000     0.87690000000000
H      H      0.88500000000000     0.40460000000000     0.37690000000000
H      H      0.38500000000000     0.40460000000000     0.12310000000000
H      H      0.61500000000000     0.90460000000000     0.37690000000000
H      H      0.11500000000000     0.59540000000000     0.62310000000000
