data_default
_cell_volume           236.699707
_symmetry_space_group_name_H-M 'P 1'
_symmetry_Int_Tables_number 1
loop_
_symmetry_equiv_pos_site_id
_symmetry_equiv_pos_as_xyz
1 x,y,z
_cell_length_a         5.3440000000
_cell_length_b         6.8460000000
_cell_length_c         7.3990000000
_cell_angle_alpha        84.8600
_cell_angle_beta        71.9600
_cell_angle_gamma        66.9600
_cell_formula_units_Z 1
loop_
_atom_site_label
_atom_site_type_symbol
_atom_site_fract_x
_atom_site_fract_y
_atom_site_fract_z
O      O      0.22830000000000     0.55640000000000     0.25680000000000
O      O      0.77170000000000     0.44360000000000     0.74320000000000
C      C      0.38400000000000     0.67540000000000     0.17780000000000
C      C      0.61600000000000     0.32460000000000     0.82220000000000
C      C      0.95080000000000     0.68690000000000     0.33030000000000
C      C      0.04920000000000     0.31310000000000     0.66970000000000
H      H      0.80800000000000     0.60960000000000     0.39660000000000
H      H      0.19200000000000     0.39040000000000     0.60340000000000
H      H      0.60710000000000     0.58820000000000     0.11520000000000
H      H      0.39290000000000     0.41180000000000     0.88480000000000
C      C      0.93040000000000     0.88680000000000     0.29800000000000
C      C      0.06960000000000     0.11320000000000     0.70200000000000
C      C      0.20760000000000     0.87960000000000     0.20050000000000
C      C      0.79240000000000     0.12040000000000     0.79950000000000
C      C      0.10650000000000     0.11990000000000     0.18910000000000
C      C      0.89350000000000     0.88010000000000     0.81090000000000
C      C      0.79660000000000     0.12810000000000     0.29830000000000
C      C      0.20340000000000     0.87190000000000     0.70170000000000
H      H      0.13090000000000     0.18030000000000     0.04700000000000
H      H      0.86910000000000     0.81970000000000     0.95300000000000
H      H      0.18980000000000     0.19480000000000     0.26630000000000
H      H      0.81020000000000     0.80520000000000     0.73370000000000
H      H      0.70410000000000     0.20760000000000     0.43740000000000
H      H      0.29590000000000     0.79240000000000     0.56260000000000
H      H      0.64530000000000     0.19300000000000     0.21790000000000
H      H      0.35470000000000     0.80700000000000     0.78210000000000
