data_default
_cell_volume           583.390508
_symmetry_space_group_name_H-M 'P 1'
_symmetry_Int_Tables_number 1
loop_
_symmetry_equiv_pos_site_id
_symmetry_equiv_pos_as_xyz
1 x,y,z
_cell_length_a         4.2110000000
_cell_length_b         7.4600000000
_cell_length_c        18.5710000000
_cell_angle_alpha        90.0000
_cell_angle_beta        90.0000
_cell_angle_gamma        90.0000
_cell_formula_units_Z 1
loop_
_atom_site_label
_atom_site_type_symbol
_atom_site_fract_x
_atom_site_fract_y
_atom_site_fract_z
C      C      0.24624000000000     0.95570000000000     0.22023000000000
C      C      0.25376000000000     0.04430000000000     0.72023000000000
C      C      0.74624000000000     0.54430000000000     0.77977000000000
C      C      0.75376000000000     0.45570000000000     0.27977000000000
C      C      0.31357000000000     0.89084000000000     0.10783000000000
C      C      0.18643000000000     0.10916000000000     0.60783000000000
C      C      0.81357000000000     0.60916000000000     0.89217000000000
C      C      0.68643000000000     0.39084000000000     0.39217000000000
C      C      0.30682000000000     0.02918000000000     0.15651000000000
C      C      0.19318000000000     0.97082000000000     0.65651000000000
C      C      0.80682000000000     0.47082000000000     0.84349000000000
C      C      0.69318000000000     0.52918000000000     0.34349000000000
C      C      0.25650000000000     0.74223000000000     0.14511000000000
C      C      0.24350000000000     0.25777000000000     0.64511000000000
C      C      0.75650000000000     0.75777000000000     0.85489000000000
C      C      0.74350000000000     0.24223000000000     0.35489000000000
O      O      0.21194000000000     0.77452000000000     0.21652000000000
O      O      0.28806000000000     0.22548000000000     0.71652000000000
O      O      0.71194000000000     0.72548000000000     0.78348000000000
O      O      0.78806000000000     0.27452000000000     0.28348000000000
C      C      0.38305000000000     0.00876000000000     0.04458000000000
C      C      0.11695000000000     0.99124000000000     0.54458000000000
C      C      0.88305000000000     0.49124000000000     0.95542000000000
C      C      0.61695000000000     0.50876000000000     0.45542000000000
C      C      0.37494000000000     0.17101000000000     0.10166000000000
C      C      0.12506000000000     0.82899000000000     0.60166000000000
C      C      0.87494000000000     0.32899000000000     0.89834000000000
C      C      0.62506000000000     0.67101000000000     0.39834000000000
H      H      0.22630000000000     0.03228000000000     0.26994000000000
H      H      0.27370000000000     0.96772000000000     0.76994000000000
H      H      0.72630000000000     0.46772000000000     0.73006000000000
H      H      0.77370000000000     0.53228000000000     0.23006000000000
H      H      0.24657000000000     0.60923000000000     0.12105000000000
H      H      0.25343000000000     0.39077000000000     0.62105000000000
H      H      0.74657000000000     0.89077000000000     0.87895000000000
H      H      0.75343000000000     0.10923000000000     0.37895000000000
H      H      0.19025000000000     0.01118000000000     0.00453000000000
H      H      0.30975000000000     0.98882000000000     0.50453000000000
H      H      0.69025000000000     0.48882000000000     0.99547000000000
H      H      0.80975000000000     0.51118000000000     0.49547000000000
H      H      0.61753000000000     0.98351000000000     0.02037000000000
H      H      0.88247000000000     0.01649000000000     0.52037000000000
H      H      0.11753000000000     0.51649000000000     0.97963000000000
H      H      0.38247000000000     0.48351000000000     0.47963000000000
H      H      0.17734000000000     0.26588000000000     0.09420000000000
H      H      0.32266000000000     0.73412000000000     0.59420000000000
H      H      0.67734000000000     0.23412000000000     0.90580000000000
H      H      0.82266000000000     0.76588000000000     0.40580000000000
H      H      0.60470000000000     0.23837000000000     0.10997000000000
H      H      0.89530000000000     0.76163000000000     0.60997000000000
H      H      0.10470000000000     0.26163000000000     0.89003000000000
H      H      0.39530000000000     0.73837000000000     0.39003000000000
