data_default
_cell_volume           538.380553
_symmetry_space_group_name_H-M 'P 1'
_symmetry_Int_Tables_number 1
loop_
_symmetry_equiv_pos_site_id
_symmetry_equiv_pos_as_xyz
1 x,y,z
_cell_length_a        10.8170000000
_cell_length_b         4.1500000000
_cell_length_c        14.4140000000
_cell_angle_alpha        90.0000
_cell_angle_beta       123.6900
_cell_angle_gamma        90.0000
_cell_formula_units_Z 1
loop_
_atom_site_label
_atom_site_type_symbol
_atom_site_fract_x
_atom_site_fract_y
_atom_site_fract_z
C      C      0.92658000000000     0.66715000000000     0.11835000000000
C      C      0.07342000000000     0.33285000000000     0.88165000000000
C      C      0.07342000000000     0.16715000000000     0.38165000000000
C      C      0.92658000000000     0.83285000000000     0.61835000000000
C      C      0.68824000000000     0.72223000000000     0.00981000000000
C      C      0.31176000000000     0.27777000000000     0.99019000000000
C      C      0.31176000000000     0.22223000000000     0.49019000000000
C      C      0.68824000000000     0.77777000000000     0.50981000000000
C      C      0.81742000000000     0.72381000000000     0.01301000000000
C      C      0.18258000000000     0.27619000000000     0.98699000000000
C      C      0.18258000000000     0.22381000000000     0.48699000000000
C      C      0.81742000000000     0.77619000000000     0.51301000000000
C      C      0.72724000000000     0.66486000000000     0.11342000000000
C      C      0.27276000000000     0.33514000000000     0.88658000000000
C      C      0.27276000000000     0.16486000000000     0.38658000000000
C      C      0.72724000000000     0.83514000000000     0.61342000000000
O      O      0.87656000000000     0.62779000000000     0.18591000000000
O      O      0.12344000000000     0.37221000000000     0.81409000000000
O      O      0.12344000000000     0.12779000000000     0.31409000000000
O      O      0.87656000000000     0.87221000000000     0.68591000000000
C      C      0.59044000000000     0.78866000000000     0.88735000000000
C      C      0.40956000000000     0.21134000000000     0.11265000000000
C      C      0.40956000000000     0.28866000000000     0.61265000000000
C      C      0.59044000000000     0.71134000000000     0.38735000000000
C      C      0.74194000000000     0.79073000000000     0.89111000000000
C      C      0.25806000000000     0.20927000000000     0.10889000000000
C      C      0.25806000000000     0.29073000000000     0.60889000000000
C      C      0.74194000000000     0.70927000000000     0.39111000000000
H      H      0.04325000000000     0.65374000000000     0.14731000000000
H      H      0.95675000000000     0.34626000000000     0.85269000000000
H      H      0.95675000000000     0.15374000000000     0.35269000000000
H      H      0.04325000000000     0.84626000000000     0.64731000000000
H      H      0.64820000000000     0.64929000000000     0.13754000000000
H      H      0.35180000000000     0.35071000000000     0.86246000000000
H      H      0.35180000000000     0.14929000000000     0.36246000000000
H      H      0.64820000000000     0.85071000000000     0.63754000000000
H      H      0.53353000000000     0.02312000000000     0.86762000000000
H      H      0.46647000000000     0.97688000000000     0.13238000000000
H      H      0.46647000000000     0.52312000000000     0.63238000000000
H      H      0.53353000000000     0.47688000000000     0.36762000000000
H      H      0.51444000000000     0.58871000000000     0.83934000000000
H      H      0.48556000000000     0.41129000000000     0.16066000000000
H      H      0.48556000000000     0.08871000000000     0.66066000000000
H      H      0.51444000000000     0.91129000000000     0.33934000000000
H      H      0.77150000000000     0.02643000000000     0.87362000000000
H      H      0.22850000000000     0.97357000000000     0.12638000000000
H      H      0.22850000000000     0.52643000000000     0.62638000000000
H      H      0.77150000000000     0.47357000000000     0.37362000000000
H      H      0.75230000000000     0.59210000000000     0.84520000000000
H      H      0.24770000000000     0.40790000000000     0.15480000000000
H      H      0.24770000000000     0.09210000000000     0.65480000000000
H      H      0.75230000000000     0.90790000000000     0.34520000000000
