data_default
_cell_volume           537.457253
_symmetry_space_group_name_H-M 'P 1'
_symmetry_Int_Tables_number 1
loop_
_symmetry_equiv_pos_site_id
_symmetry_equiv_pos_as_xyz
1 x,y,z
_cell_length_a         7.8700000000
_cell_length_b        12.1300000000
_cell_length_c         5.6300000000
_cell_angle_alpha        90.0000
_cell_angle_beta        90.0000
_cell_angle_gamma        90.0000
_cell_formula_units_Z 1
loop_
_atom_site_label
_atom_site_type_symbol
_atom_site_fract_x
_atom_site_fract_y
_atom_site_fract_z
H      H      0.17725000000000     0.19070000000000     0.40666000000000
H      H      0.82275000000000     0.80930000000000     0.90666000000000
H      H      0.32275000000000     0.69070000000000     0.90666000000000
H      H      0.67725000000000     0.30930000000000     0.40666000000000
C      C      0.23296000000000     0.16396000000000     0.24352000000000
C      C      0.76704000000000     0.83604000000000     0.74352000000000
C      C      0.26704000000000     0.66396000000000     0.74352000000000
C      C      0.73296000000000     0.33604000000000     0.24352000000000
C      C      0.23138000000000     0.07213000000000     0.11278000000000
C      C      0.76862000000000     0.92787000000000     0.61278000000000
C      C      0.26862000000000     0.57213000000000     0.61278000000000
C      C      0.73138000000000     0.42787000000000     0.11278000000000
C      C      0.18871000000000     0.95503000000000     0.03658000000000
C      C      0.81129000000000     0.04497000000000     0.53658000000000
C      C      0.31129000000000     0.45503000000000     0.53658000000000
C      C      0.68871000000000     0.54497000000000     0.03658000000000
C      C      0.33456000000000     0.09139000000000     0.91118000000000
C      C      0.66544000000000     0.90861000000000     0.41118000000000
C      C      0.16544000000000     0.59139000000000     0.41118000000000
C      C      0.83456000000000     0.40861000000000     0.91118000000000
C      C      0.30404000000000     0.97658000000000     0.81126000000000
C      C      0.69596000000000     0.02342000000000     0.31126000000000
C      C      0.19596000000000     0.47658000000000     0.31126000000000
C      C      0.80404000000000     0.52342000000000     0.81126000000000
C      C      0.39440000000000     0.19409000000000     0.92808000000000
C      C      0.60560000000000     0.80591000000000     0.42808000000000
C      C      0.10560000000000     0.69409000000000     0.42808000000000
C      C      0.89440000000000     0.30591000000000     0.92808000000000
H      H      0.47503000000000     0.24630000000000     0.82490000000000
H      H      0.52497000000000     0.75370000000000     0.32490000000000
H      H      0.02497000000000     0.74630000000000     0.32490000000000
H      H      0.97503000000000     0.25370000000000     0.82490000000000
O      O      0.33264000000000     0.23911000000000     0.13141000000000
O      O      0.66736000000000     0.76089000000000     0.63141000000000
O      O      0.16736000000000     0.73911000000000     0.63141000000000
O      O      0.83264000000000     0.26089000000000     0.13141000000000
H      H      0.23460000000000     0.89061000000000     0.15346000000000
H      H      0.76540000000000     0.10939000000000     0.65346000000000
H      H      0.26540000000000     0.39061000000000     0.65346000000000
H      H      0.73460000000000     0.60939000000000     0.15346000000000
H      H      0.05602000000000     0.93997000000000     0.99678000000000
H      H      0.94398000000000     0.06003000000000     0.49678000000000
H      H      0.44398000000000     0.43997000000000     0.49678000000000
H      H      0.55602000000000     0.56003000000000     0.99678000000000
H      H      0.23692000000000     0.97374000000000     0.64333000000000
H      H      0.76308000000000     0.02626000000000     0.14333000000000
H      H      0.26308000000000     0.47374000000000     0.14333000000000
H      H      0.73692000000000     0.52626000000000     0.64333000000000
H      H      0.41549000000000     0.92438000000000     0.80005000000000
H      H      0.58451000000000     0.07562000000000     0.30005000000000
H      H      0.08451000000000     0.42438000000000     0.30005000000000
H      H      0.91549000000000     0.57562000000000     0.80005000000000
