data_default
_cell_volume           515.342140
_symmetry_space_group_name_H-M 'P 1'
_symmetry_Int_Tables_number 1
loop_
_symmetry_equiv_pos_site_id
_symmetry_equiv_pos_as_xyz
1 x,y,z
_cell_length_a         7.1000000000
_cell_length_b         7.1300000000
_cell_length_c        10.1800000000
_cell_angle_alpha        90.0000
_cell_angle_beta        90.0000
_cell_angle_gamma        90.0000
_cell_formula_units_Z 1
loop_
_atom_site_label
_atom_site_type_symbol
_atom_site_fract_x
_atom_site_fract_y
_atom_site_fract_z
H      H      0.54132000000000     0.37786000000000     0.98539000000000
H      H      0.95868000000000     0.62214000000000     0.48539000000000
H      H      0.04132000000000     0.12214000000000     0.01461000000000
H      H      0.45868000000000     0.87786000000000     0.51461000000000
C      C      0.54159000000000     0.37741000000000     0.09032000000000
C      C      0.95841000000000     0.62259000000000     0.59032000000000
C      C      0.04159000000000     0.12259000000000     0.90968000000000
C      C      0.45841000000000     0.87741000000000     0.40968000000000
C      C      0.41204000000000     0.37858000000000     0.18539000000000
C      C      0.08796000000000     0.62142000000000     0.68539000000000
C      C      0.91204000000000     0.12142000000000     0.81461000000000
C      C      0.58796000000000     0.87858000000000     0.31461000000000
C      C      0.21933000000000     0.38064000000000     0.25070000000000
C      C      0.28067000000000     0.61936000000000     0.75070000000000
C      C      0.71933000000000     0.11936000000000     0.74930000000000
C      C      0.78067000000000     0.88064000000000     0.24930000000000
C      C      0.50879000000000     0.37688000000000     0.30690000000000
C      C      0.99121000000000     0.62312000000000     0.80690000000000
C      C      0.00879000000000     0.12312000000000     0.69310000000000
C      C      0.49121000000000     0.87688000000000     0.19310000000000
C      C      0.32750000000000     0.37875000000000     0.38651000000000
C      C      0.17250000000000     0.62125000000000     0.88651000000000
C      C      0.82750000000000     0.12125000000000     0.61349000000000
C      C      0.67250000000000     0.87875000000000     0.11349000000000
C      C      0.69297000000000     0.37475000000000     0.28046000000000
C      C      0.80703000000000     0.62525000000000     0.78046000000000
C      C      0.19297000000000     0.12525000000000     0.71954000000000
C      C      0.30703000000000     0.87475000000000     0.21954000000000
H      H      0.82056000000000     0.37298000000000     0.33605000000000
H      H      0.67944000000000     0.62702000000000     0.83605000000000
H      H      0.32056000000000     0.12702000000000     0.66395000000000
H      H      0.17944000000000     0.87298000000000     0.16395000000000
O      O      0.71417000000000     0.37506000000000     0.14785000000000
O      O      0.78583000000000     0.62494000000000     0.64785000000000
O      O      0.21417000000000     0.12494000000000     0.85215000000000
O      O      0.28583000000000     0.87506000000000     0.35215000000000
H      H      0.13588000000000     0.50545000000000     0.23336000000000
H      H      0.36412000000000     0.49455000000000     0.73336000000000
H      H      0.63588000000000     0.99455000000000     0.76664000000000
H      H      0.86412000000000     0.00545000000000     0.26664000000000
H      H      0.13285000000000     0.25806000000000     0.23283000000000
H      H      0.36715000000000     0.74194000000000     0.73283000000000
H      H      0.63285000000000     0.24194000000000     0.76717000000000
H      H      0.86715000000000     0.75806000000000     0.26717000000000
H      H      0.30248000000000     0.25509000000000     0.44587000000000
H      H      0.19752000000000     0.74491000000000     0.94587000000000
H      H      0.80248000000000     0.24491000000000     0.55413000000000
H      H      0.69752000000000     0.75509000000000     0.05413000000000
H      H      0.30551000000000     0.50249000000000     0.44637000000000
H      H      0.19449000000000     0.49751000000000     0.94637000000000
H      H      0.80551000000000     0.99751000000000     0.55363000000000
H      H      0.69449000000000     0.00249000000000     0.05363000000000
