data_default
_cell_volume           472.042651
_symmetry_space_group_name_H-M 'P 1'
_symmetry_Int_Tables_number 1
loop_
_symmetry_equiv_pos_site_id
_symmetry_equiv_pos_as_xyz
1 x,y,z
_cell_length_a         5.8680000000
_cell_length_b         5.2500000000
_cell_length_c        17.0430000000
_cell_angle_alpha        90.0000
_cell_angle_beta        64.0340
_cell_angle_gamma        90.0000
_cell_formula_units_Z 1
loop_
_atom_site_label
_atom_site_type_symbol
_atom_site_fract_x
_atom_site_fract_y
_atom_site_fract_z
O      O      0.06653000000000     0.26714000000000     0.31650000000000
O      O      0.93347000000000     0.73286000000000     0.68350000000000
O      O      0.93347000000000     0.76714000000000     0.18350000000000
O      O      0.06653000000000     0.23286000000000     0.81650000000000
C      C      0.17680000000000     0.47645000000000     0.30462000000000
C      C      0.82320000000000     0.52355000000000     0.69538000000000
C      C      0.82320000000000     0.97645000000000     0.19538000000000
C      C      0.17680000000000     0.02355000000000     0.80462000000000
H      H      0.16042000000000     0.60457000000000     0.25567000000000
H      H      0.83958000000000     0.39543000000000     0.74433000000000
H      H      0.83958000000000     0.10457000000000     0.24433000000000
H      H      0.16042000000000     0.89543000000000     0.75567000000000
C      C      0.09983000000000     0.14250000000000     0.37275000000000
C      C      0.90017000000000     0.85750000000000     0.62725000000000
C      C      0.90017000000000     0.64250000000000     0.12725000000000
C      C      0.09983000000000     0.35750000000000     0.87275000000000
H      H      0.00918000000000     0.95173000000000     0.38882000000000
H      H      0.99082000000000     0.04827000000000     0.61118000000000
H      H      0.99082000000000     0.45173000000000     0.11118000000000
H      H      0.00918000000000     0.54827000000000     0.88882000000000
C      C      0.29033000000000     0.49426000000000     0.35675000000000
C      C      0.70967000000000     0.50574000000000     0.64325000000000
C      C      0.70967000000000     0.99426000000000     0.14325000000000
C      C      0.29033000000000     0.00574000000000     0.85675000000000
C      C      0.24101000000000     0.27678000000000     0.40081000000000
C      C      0.75899000000000     0.72322000000000     0.59919000000000
C      C      0.75899000000000     0.77678000000000     0.09919000000000
C      C      0.24101000000000     0.22322000000000     0.90081000000000
C      C      0.44672000000000     0.60468000000000     0.39995000000000
C      C      0.55328000000000     0.39532000000000     0.60005000000000
C      C      0.55328000000000     0.10468000000000     0.10005000000000
C      C      0.44672000000000     0.89532000000000     0.89995000000000
H      H      0.35604000000000     0.77289000000000     0.44137000000000
H      H      0.64396000000000     0.22711000000000     0.55863000000000
H      H      0.64396000000000     0.27289000000000     0.05863000000000
H      H      0.35604000000000     0.72711000000000     0.94137000000000
H      H      0.64939000000000     0.63044000000000     0.35396000000000
H      H      0.35061000000000     0.36956000000000     0.64604000000000
H      H      0.35061000000000     0.13044000000000     0.14604000000000
H      H      0.64939000000000     0.86956000000000     0.85396000000000
C      C      0.38828000000000     0.34562000000000     0.45225000000000
C      C      0.61172000000000     0.65438000000000     0.54775000000000
C      C      0.61172000000000     0.84562000000000     0.04775000000000
C      C      0.38828000000000     0.15438000000000     0.95225000000000
H      H      0.26470000000000     0.36530000000000     0.52318000000000
H      H      0.73530000000000     0.63470000000000     0.47682000000000
H      H      0.73530000000000     0.86530000000000     0.97682000000000
H      H      0.26470000000000     0.13470000000000     0.02318000000000
H      H      0.55586000000000     0.22079000000000     0.43545000000000
H      H      0.44414000000000     0.77921000000000     0.56455000000000
H      H      0.44414000000000     0.72079000000000     0.06455000000000
H      H      0.55586000000000     0.27921000000000     0.93545000000000
