data_default
_cell_volume          1042.309272
_symmetry_space_group_name_H-M 'P 1'
_symmetry_Int_Tables_number 1
loop_
_symmetry_equiv_pos_site_id
_symmetry_equiv_pos_as_xyz
1 x,y,z
_cell_length_a        10.3050000000
_cell_length_b        13.3350000000
_cell_length_c         7.5850000000
_cell_angle_alpha        90.0000
_cell_angle_beta        90.0000
_cell_angle_gamma        90.0000
_cell_formula_units_Z 1
loop_
_atom_site_label
_atom_site_type_symbol
_atom_site_fract_x
_atom_site_fract_y
_atom_site_fract_z
H      H      0.03548000000000     0.42428000000000     0.15752000000000
H      H      0.96452000000000     0.57572000000000     0.84248000000000
H      H      0.46452000000000     0.57572000000000     0.65752000000000
H      H      0.53548000000000     0.07572000000000     0.84248000000000
H      H      0.96452000000000     0.92428000000000     0.34248000000000
H      H      0.46452000000000     0.92428000000000     0.15752000000000
H      H      0.53548000000000     0.42428000000000     0.34248000000000
H      H      0.03548000000000     0.07572000000000     0.65752000000000
C      C      0.12898000000000     0.39542000000000     0.12411000000000
C      C      0.87102000000000     0.60458000000000     0.87589000000000
C      C      0.37102000000000     0.60458000000000     0.62411000000000
C      C      0.62898000000000     0.10458000000000     0.87589000000000
C      C      0.87102000000000     0.89542000000000     0.37589000000000
C      C      0.37102000000000     0.89542000000000     0.12411000000000
C      C      0.62898000000000     0.39542000000000     0.37589000000000
C      C      0.12898000000000     0.10458000000000     0.62411000000000
C      C      0.18264000000000     0.30482000000000     0.10642000000000
C      C      0.81736000000000     0.69518000000000     0.89358000000000
C      C      0.31736000000000     0.69518000000000     0.60642000000000
C      C      0.68264000000000     0.19518000000000     0.89358000000000
C      C      0.81736000000000     0.80482000000000     0.39358000000000
C      C      0.31736000000000     0.80482000000000     0.10642000000000
C      C      0.68264000000000     0.30482000000000     0.39358000000000
C      C      0.18264000000000     0.19518000000000     0.60642000000000
C      C      0.19479000000000     0.19115000000000     0.10429000000000
C      C      0.80521000000000     0.80885000000000     0.89571000000000
C      C      0.30521000000000     0.80885000000000     0.60429000000000
C      C      0.69479000000000     0.30885000000000     0.89571000000000
C      C      0.80521000000000     0.69115000000000     0.39571000000000
C      C      0.30521000000000     0.69115000000000     0.10429000000000
C      C      0.69479000000000     0.19115000000000     0.39571000000000
C      C      0.19479000000000     0.30885000000000     0.60429000000000
C      C      0.31398000000000     0.31929000000000     0.05839000000000
C      C      0.68602000000000     0.68071000000000     0.94161000000000
C      C      0.18602000000000     0.68071000000000     0.55839000000000
C      C      0.81398000000000     0.18071000000000     0.94161000000000
C      C      0.68602000000000     0.81929000000000     0.44161000000000
C      C      0.18602000000000     0.81929000000000     0.05839000000000
C      C      0.81398000000000     0.31929000000000     0.44161000000000
C      C      0.31398000000000     0.18071000000000     0.55839000000000
C      C      0.34159000000000     0.20726000000000     0.05060000000000
C      C      0.65841000000000     0.79274000000000     0.94940000000000
C      C      0.15841000000000     0.79274000000000     0.55060000000000
C      C      0.84159000000000     0.29274000000000     0.94940000000000
C      C      0.65841000000000     0.70726000000000     0.44940000000000
C      C      0.15841000000000     0.70726000000000     0.05060000000000
C      C      0.84159000000000     0.20726000000000     0.44940000000000
C      C      0.34159000000000     0.29274000000000     0.55060000000000
C      C      0.33454000000000     0.41797000000000     0.04893000000000
C      C      0.66546000000000     0.58203000000000     0.95107000000000
C      C      0.16546000000000     0.58203000000000     0.54893000000000
C      C      0.83454000000000     0.08203000000000     0.95107000000000
C      C      0.66546000000000     0.91797000000000     0.45107000000000
C      C      0.16546000000000     0.91797000000000     0.04893000000000
C      C      0.83454000000000     0.41797000000000     0.45107000000000
C      C      0.33454000000000     0.08203000000000     0.54893000000000
H      H      0.41451000000000     0.46595000000000     0.01890000000000
H      H      0.58549000000000     0.53405000000000     0.98110000000000
H      H      0.08549000000000     0.53405000000000     0.51890000000000
H      H      0.91451000000000     0.03405000000000     0.98110000000000
H      H      0.58549000000000     0.96595000000000     0.48110000000000
H      H      0.08549000000000     0.96595000000000     0.01890000000000
H      H      0.91451000000000     0.46595000000000     0.48110000000000
H      H      0.41451000000000     0.03405000000000     0.51890000000000
O      O      0.22148000000000     0.46515000000000     0.08909000000000
O      O      0.77852000000000     0.53485000000000     0.91091000000000
O      O      0.27852000000000     0.53485000000000     0.58909000000000
O      O      0.72148000000000     0.03485000000000     0.91091000000000
O      O      0.77852000000000     0.96515000000000     0.41091000000000
O      O      0.27852000000000     0.96515000000000     0.08909000000000
O      O      0.72148000000000     0.46515000000000     0.41091000000000
O      O      0.22148000000000     0.03485000000000     0.58909000000000
H      H      0.18085000000000     0.15459000000000     0.23047000000000
H      H      0.81915000000000     0.84541000000000     0.76953000000000
H      H      0.31915000000000     0.84541000000000     0.73047000000000
H      H      0.68085000000000     0.34541000000000     0.76953000000000
H      H      0.81915000000000     0.65459000000000     0.26953000000000
H      H      0.31915000000000     0.65459000000000     0.23047000000000
H      H      0.68085000000000     0.15459000000000     0.26953000000000
H      H      0.18085000000000     0.34541000000000     0.73047000000000
H      H      0.13661000000000     0.15313000000000     0.00581000000000
H      H      0.86339000000000     0.84687000000000     0.99419000000000
H      H      0.36339000000000     0.84687000000000     0.50581000000000
H      H      0.63661000000000     0.34687000000000     0.99419000000000
H      H      0.86339000000000     0.65313000000000     0.49419000000000
H      H      0.36339000000000     0.65313000000000     0.00581000000000
H      H      0.63661000000000     0.15313000000000     0.49419000000000
H      H      0.13661000000000     0.34687000000000     0.50581000000000
H      H      0.36689000000000     0.17841000000000     0.92159000000000
H      H      0.63311000000000     0.82159000000000     0.07841000000000
H      H      0.13311000000000     0.82159000000000     0.42159000000000
H      H      0.86689000000000     0.32159000000000     0.07841000000000
H      H      0.63311000000000     0.67841000000000     0.57841000000000
H      H      0.13311000000000     0.67841000000000     0.92159000000000
H      H      0.86689000000000     0.17841000000000     0.57841000000000
H      H      0.36689000000000     0.32159000000000     0.42159000000000
H      H      0.41113000000000     0.17987000000000     0.14625000000000
H      H      0.58887000000000     0.82013000000000     0.85375000000000
H      H      0.08887000000000     0.82013000000000     0.64625000000000
H      H      0.91113000000000     0.32013000000000     0.85375000000000
H      H      0.58887000000000     0.67987000000000     0.35375000000000
H      H      0.08887000000000     0.67987000000000     0.14625000000000
H      H      0.91113000000000     0.17987000000000     0.35375000000000
H      H      0.41113000000000     0.32013000000000     0.64625000000000
