data_default
_cell_volume           499.651259
_symmetry_space_group_name_H-M 'P 1'
_symmetry_Int_Tables_number 1
loop_
_symmetry_equiv_pos_site_id
_symmetry_equiv_pos_as_xyz
1 x,y,z
_cell_length_a        12.4870000000
_cell_length_b         9.7050000000
_cell_length_c         4.1230000000
_cell_angle_alpha        90.0000
_cell_angle_beta        90.0000
_cell_angle_gamma        90.0000
_cell_formula_units_Z 1
loop_
_atom_site_label
_atom_site_type_symbol
_atom_site_fract_x
_atom_site_fract_y
_atom_site_fract_z
H      H      0.29719000000000     0.46305000000000     0.90614000000000
H      H      0.20281000000000     0.53695000000000     0.40614000000000
H      H      0.79719000000000     0.03695000000000     0.09386000000000
H      H      0.70281000000000     0.96305000000000     0.59386000000000
C      C      0.33801000000000     0.36831000000000     0.95184000000000
C      C      0.16199000000000     0.63169000000000     0.45184000000000
C      C      0.83801000000000     0.13169000000000     0.04816000000000
C      C      0.66199000000000     0.86831000000000     0.54816000000000
C      C      0.43124000000000     0.33064000000000     0.08343000000000
C      C      0.06876000000000     0.66936000000000     0.58343000000000
C      C      0.93124000000000     0.16936000000000     0.91657000000000
C      C      0.56876000000000     0.83064000000000     0.41657000000000
C      C      0.54018000000000     0.34313000000000     0.24582000000000
C      C      0.95982000000000     0.65687000000000     0.74582000000000
C      C      0.04018000000000     0.15687000000000     0.75418000000000
C      C      0.45982000000000     0.84313000000000     0.25418000000000
C      C      0.43671000000000     0.18514000000000     0.06935000000000
C      C      0.06329000000000     0.81486000000000     0.56935000000000
C      C      0.93671000000000     0.31486000000000     0.93065000000000
C      C      0.56329000000000     0.68514000000000     0.43065000000000
C      C      0.54635000000000     0.18052000000000     0.23015000000000
C      C      0.95365000000000     0.81948000000000     0.73015000000000
C      C      0.04635000000000     0.31948000000000     0.76985000000000
C      C      0.45365000000000     0.68052000000000     0.26985000000000
C      C      0.34666000000000     0.14061000000000     0.92993000000000
C      C      0.15334000000000     0.85939000000000     0.42993000000000
C      C      0.84666000000000     0.35939000000000     0.07007000000000
C      C      0.65334000000000     0.64061000000000     0.57007000000000
H      H      0.31306000000000     0.04318000000000     0.86560000000000
H      H      0.18694000000000     0.95682000000000     0.36560000000000
H      H      0.81306000000000     0.45682000000000     0.13440000000000
H      H      0.68694000000000     0.54318000000000     0.63440000000000
O      O      0.28573000000000     0.25240000000000     0.85718000000000
O      O      0.21427000000000     0.74760000000000     0.35718000000000
O      O      0.78573000000000     0.24760000000000     0.14282000000000
O      O      0.71427000000000     0.75240000000000     0.64282000000000
H      H      0.60093000000000     0.39587000000000     0.10503000000000
H      H      0.89907000000000     0.60413000000000     0.60503000000000
H      H      0.10093000000000     0.10413000000000     0.89497000000000
H      H      0.39907000000000     0.89587000000000     0.39497000000000
H      H      0.53926000000000     0.38532000000000     0.48917000000000
H      H      0.96074000000000     0.61468000000000     0.98917000000000
H      H      0.03926000000000     0.11468000000000     0.51083000000000
H      H      0.46074000000000     0.88532000000000     0.01083000000000
H      H      0.54894000000000     0.13023000000000     0.46460000000000
H      H      0.95106000000000     0.86977000000000     0.96460000000000
H      H      0.04894000000000     0.36977000000000     0.53540000000000
H      H      0.45106000000000     0.63023000000000     0.03540000000000
H      H      0.61061000000000     0.14079000000000     0.08046000000000
H      H      0.88939000000000     0.85921000000000     0.58046000000000
H      H      0.11061000000000     0.35921000000000     0.91954000000000
H      H      0.38939000000000     0.64079000000000     0.41954000000000
