data_default
_cell_volume           464.648761
_symmetry_space_group_name_H-M 'P 1'
_symmetry_Int_Tables_number 1
loop_
_symmetry_equiv_pos_site_id
_symmetry_equiv_pos_as_xyz
1 x,y,z
_cell_length_a        10.4160000000
_cell_length_b         5.2260000000
_cell_length_c         8.5360000000
_cell_angle_alpha        90.0000
_cell_angle_beta        90.0000
_cell_angle_gamma        90.0000
_cell_formula_units_Z 1
loop_
_atom_site_label
_atom_site_type_symbol
_atom_site_fract_x
_atom_site_fract_y
_atom_site_fract_z
O      O      0.35072000000000     0.99818000000000     0.09398000000000
O      O      0.64928000000000     0.00182000000000     0.59398000000000
O      O      0.14928000000000     0.99818000000000     0.59398000000000
O      O      0.85072000000000     0.00182000000000     0.09398000000000
C      C      0.45365000000000     0.11891000000000     0.09098000000000
C      C      0.54635000000000     0.88109000000000     0.59098000000000
C      C      0.04635000000000     0.11891000000000     0.59098000000000
C      C      0.95365000000000     0.88109000000000     0.09098000000000
H      H      0.52115000000000     0.07213000000000     0.99441000000000
H      H      0.47885000000000     0.92787000000000     0.49441000000000
H      H      0.97885000000000     0.07213000000000     0.49441000000000
H      H      0.02115000000000     0.92787000000000     0.99441000000000
C      C      0.28569000000000     0.06580000000000     0.20917000000000
C      C      0.71431000000000     0.93420000000000     0.70917000000000
C      C      0.21431000000000     0.06580000000000     0.70917000000000
C      C      0.78569000000000     0.93420000000000     0.20917000000000
H      H      0.19206000000000     0.96771000000000     0.22530000000000
H      H      0.80794000000000     0.03229000000000     0.72530000000000
H      H      0.30794000000000     0.96771000000000     0.72530000000000
H      H      0.69206000000000     0.03229000000000     0.22530000000000
C      C      0.45803000000000     0.27861000000000     0.21169000000000
C      C      0.54197000000000     0.72139000000000     0.71169000000000
C      C      0.04197000000000     0.27861000000000     0.71169000000000
C      C      0.95803000000000     0.72139000000000     0.21169000000000
C      C      0.34766000000000     0.24757000000000     0.28716000000000
C      C      0.65234000000000     0.75243000000000     0.78716000000000
C      C      0.15234000000000     0.24757000000000     0.78716000000000
C      C      0.84766000000000     0.75243000000000     0.28716000000000
C      C      0.50955000000000     0.48078000000000     0.32322000000000
C      C      0.49045000000000     0.51922000000000     0.82322000000000
C      C      0.99045000000000     0.48078000000000     0.82322000000000
C      C      0.00955000000000     0.51922000000000     0.32322000000000
H      H      0.52217000000000     0.67001000000000     0.26664000000000
H      H      0.47783000000000     0.32999000000000     0.76664000000000
H      H      0.97783000000000     0.67001000000000     0.76664000000000
H      H      0.02217000000000     0.32999000000000     0.26664000000000
H      H      0.59389000000000     0.40902000000000     0.38956000000000
H      H      0.40611000000000     0.59098000000000     0.88956000000000
H      H      0.90611000000000     0.40902000000000     0.88956000000000
H      H      0.09389000000000     0.59098000000000     0.38956000000000
C      C      0.37764000000000     0.44666000000000     0.41167000000000
C      C      0.62236000000000     0.55334000000000     0.91167000000000
C      C      0.12236000000000     0.44666000000000     0.91167000000000
C      C      0.87764000000000     0.55334000000000     0.41167000000000
H      H      0.31456000000000     0.61768000000000     0.40654000000000
H      H      0.68544000000000     0.38232000000000     0.90654000000000
H      H      0.18544000000000     0.61768000000000     0.90654000000000
H      H      0.81456000000000     0.38232000000000     0.40654000000000
H      H      0.38743000000000     0.36229000000000     0.53006000000000
H      H      0.61257000000000     0.63771000000000     0.03006000000000
H      H      0.11257000000000     0.36229000000000     0.03006000000000
H      H      0.88743000000000     0.63771000000000     0.53006000000000
