data_default
_cell_volume           259.258573
_symmetry_space_group_name_H-M 'P 1'
_symmetry_Int_Tables_number 1
loop_
_symmetry_equiv_pos_site_id
_symmetry_equiv_pos_as_xyz
1 x,y,z
_cell_length_a         5.4040000000
_cell_length_b         7.5620000000
_cell_length_c         6.7860000000
_cell_angle_alpha        83.6970
_cell_angle_beta        81.2400
_cell_angle_gamma       106.5540
_cell_formula_units_Z 1
loop_
_atom_site_label
_atom_site_type_symbol
_atom_site_fract_x
_atom_site_fract_y
_atom_site_fract_z
H      H      0.01411000000000     0.36049000000000     0.15056000000000
H      H      0.98589000000000     0.63951000000000     0.84944000000000
C      C      0.80624000000000     0.31030000000000     0.20424000000000
C      C      0.19376000000000     0.68970000000000     0.79576000000000
C      C      0.64345000000000     0.27952000000000     0.38212000000000
C      C      0.35655000000000     0.72048000000000     0.61788000000000
C      C      0.55187000000000     0.27007000000000     0.60747000000000
C      C      0.44813000000000     0.72993000000000     0.39253000000000
C      C      0.38375000000000     0.21049000000000     0.34827000000000
C      C      0.61625000000000     0.78951000000000     0.65173000000000
C      C      0.26156000000000     0.19291000000000     0.56973000000000
C      C      0.73844000000000     0.80709000000000     0.43027000000000
C      C      0.39974000000000     0.20226000000000     0.15143000000000
C      C      0.60026000000000     0.79774000000000     0.84857000000000
H      H      0.26462000000000     0.16127000000000     0.05299000000000
H      H      0.73538000000000     0.83873000000000     0.94701000000000
O      O      0.65831000000000     0.26327000000000     0.06211000000000
O      O      0.34169000000000     0.73673000000000     0.93789000000000
H      H      0.61125000000000     0.17285000000000     0.70507000000000
H      H      0.38875000000000     0.82715000000000     0.29493000000000
H      H      0.59594000000000     0.40342000000000     0.66084000000000
H      H      0.40406000000000     0.59658000000000     0.33916000000000
H      H      0.14056000000000     0.28238000000000     0.60165000000000
H      H      0.85944000000000     0.71762000000000     0.39835000000000
H      H      0.15587000000000     0.05181000000000     0.64587000000000
H      H      0.84413000000000     0.94819000000000     0.35413000000000
