data_default
_cell_volume           505.255919
_symmetry_space_group_name_H-M 'P 1'
_symmetry_Int_Tables_number 1
loop_
_symmetry_equiv_pos_site_id
_symmetry_equiv_pos_as_xyz
1 x,y,z
_cell_length_a         8.7074960000
_cell_length_b         5.4203140000
_cell_length_c        12.4670590000
_cell_angle_alpha        90.0000
_cell_angle_beta       120.8317
_cell_angle_gamma        90.0000
_cell_formula_units_Z 1
loop_
_atom_site_label
_atom_site_type_symbol
_atom_site_fract_x
_atom_site_fract_y
_atom_site_fract_z
O      O      0.58743700000000     0.90489300000000     0.71025500000000
O      O      0.41256300000000     0.09510700000000     0.28974500000000
O      O      0.41256300000000     0.40489300000000     0.78974500000000
O      O      0.58743700000000     0.59510700000000     0.21025500000000
C      C      0.59501100000000     0.72816300000000     0.63350400000000
C      C      0.40498900000000     0.27183700000000     0.36649600000000
C      C      0.40498900000000     0.22816300000000     0.86649600000000
C      C      0.59501100000000     0.77183700000000     0.13350400000000
C      C      0.71029700000000     0.81019000000000     0.59791400000000
C      C      0.28970300000000     0.18981000000000     0.40208600000000
C      C      0.28970300000000     0.31019000000000     0.90208600000000
C      C      0.71029700000000     0.68981000000000     0.09791400000000
C      C      0.77531000000000     0.04305000000000     0.65399100000000
C      C      0.22469000000000     0.95695000000000     0.34600900000000
C      C      0.22469000000000     0.54305000000000     0.84600900000000
C      C      0.77531000000000     0.45695000000000     0.15399100000000
C      C      0.69858900000000     0.09819400000000     0.72269200000000
C      C      0.30141100000000     0.90180600000000     0.27730800000000
C      C      0.30141100000000     0.59819400000000     0.77730800000000
C      C      0.69858900000000     0.40180600000000     0.22269200000000
H      H      0.70226500000000     0.24670000000000     0.78121500000000
H      H      0.29773500000000     0.75330000000000     0.21878500000000
H      H      0.29773500000000     0.74670000000000     0.71878500000000
H      H      0.70226500000000     0.25330000000000     0.28121500000000
H      H      0.51255100000000     0.56864900000000     0.61767700000000
H      H      0.48744900000000     0.43135100000000     0.38232300000000
H      H      0.48744900000000     0.06864900000000     0.88232300000000
H      H      0.51255100000000     0.93135100000000     0.11767700000000
C      C      0.81872600000000     0.81213500000000     0.53370900000000
C      C      0.18127400000000     0.18786500000000     0.46629100000000
C      C      0.18127400000000     0.31213500000000     0.96629100000000
C      C      0.81872600000000     0.68786500000000     0.03370900000000
C      C      0.89153500000000     0.07236200000000     0.59651600000000
C      C      0.10846500000000     0.92763800000000     0.40348400000000
C      C      0.10846500000000     0.57236200000000     0.90348400000000
C      C      0.89153500000000     0.42763800000000     0.09651600000000
H      H      0.92080000000000     0.66945300000000     0.56392900000000
H      H      0.07920000000000     0.33054700000000     0.43607100000000
H      H      0.07920000000000     0.16945300000000     0.93607100000000
H      H      0.92080000000000     0.83054700000000     0.06392900000000
H      H      0.74105700000000     0.81547600000000     0.43190700000000
H      H      0.25894300000000     0.18452400000000     0.56809300000000
H      H      0.25894300000000     0.31547600000000     0.06809300000000
H      H      0.74105700000000     0.68452400000000     0.93190700000000
H      H      0.85550100000000     0.22441400000000     0.53060800000000
H      H      0.14449900000000     0.77558600000000     0.46939200000000
H      H      0.14449900000000     0.72441400000000     0.96939200000000
H      H      0.85550100000000     0.27558600000000     0.03060800000000
H      H      0.03521900000000     0.07802900000000     0.66250200000000
H      H      0.96478100000000     0.92197100000000     0.33749800000000
H      H      0.96478100000000     0.57802900000000     0.83749800000000
H      H      0.03521900000000     0.42197100000000     0.16250200000000
