data_default
_cell_volume           465.436816
_symmetry_space_group_name_H-M 'P 1'
_symmetry_Int_Tables_number 1
loop_
_symmetry_equiv_pos_site_id
_symmetry_equiv_pos_as_xyz
1 x,y,z
_cell_length_a         7.3460000000
_cell_length_b         7.5623000000
_cell_length_c         8.3783000000
_cell_angle_alpha        90.0000
_cell_angle_beta        90.0000
_cell_angle_gamma        90.0000
_cell_formula_units_Z 1
loop_
_atom_site_label
_atom_site_type_symbol
_atom_site_fract_x
_atom_site_fract_y
_atom_site_fract_z
O      O      0.37128000000000     0.46394000000000     0.31902000000000
O      O      0.12872000000000     0.53606000000000     0.81902000000000
O      O      0.87128000000000     0.03606000000000     0.68098000000000
O      O      0.62872000000000     0.96394000000000     0.18098000000000
C      C      0.34951000000000     0.48308000000000     0.48001000000000
C      C      0.15049000000000     0.51692000000000     0.98001000000000
C      C      0.84951000000000     0.01692000000000     0.51999000000000
C      C      0.65049000000000     0.98308000000000     0.01999000000000
C      C      0.35796000000000     0.32534000000000     0.55432000000000
C      C      0.14204000000000     0.67466000000000     0.05432000000000
C      C      0.85796000000000     0.17466000000000     0.44568000000000
C      C      0.64204000000000     0.82534000000000     0.94568000000000
C      C      0.38739000000000     0.19606000000000     0.43080000000000
C      C      0.11261000000000     0.80394000000000     0.93080000000000
C      C      0.88739000000000     0.30394000000000     0.56920000000000
C      C      0.61261000000000     0.69606000000000     0.06920000000000
C      C      0.39413000000000     0.28706000000000     0.29272000000000
C      C      0.10587000000000     0.71294000000000     0.79272000000000
C      C      0.89413000000000     0.21294000000000     0.70728000000000
C      C      0.60587000000000     0.78706000000000     0.20728000000000
C      C      0.38394000000000     0.18223000000000     0.68480000000000
C      C      0.11606000000000     0.81777000000000     0.18480000000000
C      C      0.88394000000000     0.31777000000000     0.31520000000000
C      C      0.61606000000000     0.68223000000000     0.81520000000000
C      C      0.36344000000000     0.04363000000000     0.55268000000000
C      C      0.13656000000000     0.95637000000000     0.05268000000000
C      C      0.86344000000000     0.45637000000000     0.44732000000000
C      C      0.63656000000000     0.54363000000000     0.94732000000000
H      H      0.33021000000000     0.61134000000000     0.52149000000000
H      H      0.16979000000000     0.38866000000000     0.02149000000000
H      H      0.83021000000000     0.88866000000000     0.47851000000000
H      H      0.66979000000000     0.11134000000000     0.97851000000000
H      H      0.28187000000000     0.17924000000000     0.77076000000000
H      H      0.21813000000000     0.82076000000000     0.27076000000000
H      H      0.78187000000000     0.32076000000000     0.22924000000000
H      H      0.71813000000000     0.67924000000000     0.72924000000000
H      H      0.51094000000000     0.18367000000000     0.73963000000000
H      H      0.98906000000000     0.81633000000000     0.23963000000000
H      H      0.01094000000000     0.31633000000000     0.26037000000000
H      H      0.48906000000000     0.68367000000000     0.76037000000000
H      H      0.23685000000000     0.98219000000000     0.54908000000000
H      H      0.26315000000000     0.01781000000000     0.04908000000000
H      H      0.73685000000000     0.51781000000000     0.45092000000000
H      H      0.76315000000000     0.48219000000000     0.95092000000000
H      H      0.46619000000000     0.94908000000000     0.55001000000000
H      H      0.03381000000000     0.05092000000000     0.05001000000000
H      H      0.96619000000000     0.55092000000000     0.44999000000000
H      H      0.53381000000000     0.44908000000000     0.94999000000000
H      H      0.41282000000000     0.24843000000000     0.17472000000000
H      H      0.08718000000000     0.75157000000000     0.67472000000000
H      H      0.91282000000000     0.25157000000000     0.82528000000000
H      H      0.58718000000000     0.74843000000000     0.32528000000000
