data_default
_cell_volume           472.208477
_symmetry_space_group_name_H-M 'P 1'
_symmetry_Int_Tables_number 1
loop_
_symmetry_equiv_pos_site_id
_symmetry_equiv_pos_as_xyz
1 x,y,z
_cell_length_a        19.4779900000
_cell_length_b         5.3213300000
_cell_length_c         7.4298400000
_cell_angle_alpha        90.0000
_cell_angle_beta        37.8200
_cell_angle_gamma        90.0000
_cell_formula_units_Z 1
loop_
_atom_site_label
_atom_site_type_symbol
_atom_site_fract_x
_atom_site_fract_y
_atom_site_fract_z
O      O      0.07764900000000     0.98691800000000     0.14708500000000
O      O      0.92235100000000     0.01308200000000     0.85291500000000
O      O      0.92235100000000     0.48691800000000     0.35291500000000
O      O      0.07764900000000     0.51308200000000     0.64708500000000
C      C      0.12723200000000     0.81247500000000     0.15134500000000
C      C      0.87276800000000     0.18752500000000     0.84865500000000
C      C      0.87276800000000     0.31247500000000     0.34865500000000
C      C      0.12723200000000     0.68752500000000     0.65134500000000
H      H      0.07444600000000     0.66395400000000     0.30722700000000
H      H      0.92555400000000     0.33604600000000     0.69277300000000
H      H      0.92555400000000     0.16395400000000     0.19277300000000
H      H      0.07444600000000     0.83604600000000     0.80722700000000
C      C      0.15445300000000     0.16282500000000     0.94063000000000
C      C      0.84554700000000     0.83717500000000     0.05937000000000
C      C      0.84554700000000     0.66282500000000     0.55937000000000
C      C      0.15445300000000     0.33717500000000     0.44063000000000
H      H      0.12477300000000     0.31060200000000     0.91723200000000
H      H      0.87522700000000     0.68939800000000     0.08276800000000
H      H      0.87522700000000     0.81060200000000     0.58276800000000
H      H      0.12477300000000     0.18939800000000     0.41723200000000
C      C      0.23421700000000     0.87764200000000     0.95065500000000
C      C      0.76578300000000     0.12235800000000     0.04934500000000
C      C      0.76578300000000     0.37764200000000     0.54934500000000
C      C      0.23421700000000     0.62235800000000     0.45065500000000
C      C      0.25178300000000     0.10085400000000     0.81454700000000
C      C      0.74821700000000     0.89914600000000     0.18545300000000
C      C      0.74821700000000     0.60085400000000     0.68545300000000
C      C      0.25178300000000     0.39914600000000     0.31454700000000
C      C      0.35494900000000     0.86783600000000     0.76520600000000
C      C      0.64505100000000     0.13216400000000     0.23479400000000
C      C      0.64505100000000     0.36783600000000     0.73479400000000
C      C      0.35494900000000     0.63216400000000     0.26520600000000
H      H      0.40280400000000     0.70675400000000     0.62217500000000
H      H      0.59719600000000     0.29324600000000     0.37782500000000
H      H      0.59719600000000     0.20675400000000     0.87782500000000
H      H      0.40280400000000     0.79324600000000     0.12217500000000
H      H      0.36593100000000     0.89099700000000     0.88608700000000
H      H      0.63406900000000     0.10900300000000     0.11391300000000
H      H      0.63406900000000     0.39099700000000     0.61391300000000
H      H      0.36593100000000     0.60900300000000     0.38608700000000
C      C      0.37493100000000     0.11502300000000     0.61047800000000
C      C      0.62506900000000     0.88497700000000     0.38952200000000
C      C      0.62506900000000     0.61502300000000     0.88952200000000
C      C      0.37493100000000     0.38497700000000     0.11047800000000
H      H      0.43306100000000     0.09367100000000     0.37942600000000
H      H      0.56693900000000     0.90632900000000     0.62057400000000
H      H      0.56693900000000     0.59367100000000     0.12057400000000
H      H      0.43306100000000     0.40632900000000     0.87942600000000
H      H      0.39882400000000     0.27713000000000     0.63989400000000
H      H      0.60117600000000     0.72287000000000     0.36010600000000
H      H      0.60117600000000     0.77713000000000     0.86010600000000
H      H      0.39882400000000     0.22287000000000     0.13989400000000
