data_default
_cell_volume           946.570700
_symmetry_space_group_name_H-M 'P 1'
_symmetry_Int_Tables_number 1
loop_
_symmetry_equiv_pos_site_id
_symmetry_equiv_pos_as_xyz
1 x,y,z
_cell_length_a        12.4676900000
_cell_length_b        14.3902400000
_cell_length_c         5.2759300000
_cell_angle_alpha        90.0000
_cell_angle_beta        90.0000
_cell_angle_gamma        90.0000
_cell_formula_units_Z 1
loop_
_atom_site_label
_atom_site_type_symbol
_atom_site_fract_x
_atom_site_fract_y
_atom_site_fract_z
O      O      0.23818400000000     0.37735500000000     0.53281900000000
O      O      0.76181600000000     0.62264500000000     0.46718100000000
O      O      0.26181600000000     0.62264500000000     0.03281900000000
O      O      0.73818400000000     0.12264500000000     0.46718100000000
O      O      0.76181600000000     0.87735500000000     0.96718100000000
O      O      0.26181600000000     0.87735500000000     0.53281900000000
O      O      0.73818400000000     0.37735500000000     0.96718100000000
O      O      0.23818400000000     0.12264500000000     0.03281900000000
C      C      0.31928100000000     0.33950800000000     0.66977300000000
C      C      0.68071900000000     0.66049200000000     0.33022700000000
C      C      0.18071900000000     0.66049200000000     0.16977300000000
C      C      0.81928100000000     0.16049200000000     0.33022700000000
C      C      0.68071900000000     0.83950800000000     0.83022700000000
C      C      0.18071900000000     0.83950800000000     0.66977300000000
C      C      0.81928100000000     0.33950800000000     0.83022700000000
C      C      0.31928100000000     0.16049200000000     0.16977300000000
H      H      0.29629600000000     0.30705000000000     0.84372600000000
H      H      0.70370400000000     0.69295000000000     0.15627400000000
H      H      0.20370400000000     0.69295000000000     0.34372600000000
H      H      0.79629600000000     0.19295000000000     0.15627400000000
H      H      0.70370400000000     0.80705000000000     0.65627400000000
H      H      0.20370400000000     0.80705000000000     0.84372600000000
H      H      0.79629600000000     0.30705000000000     0.65627400000000
H      H      0.29629600000000     0.19295000000000     0.34372600000000
C      C      0.27885100000000     0.41588200000000     0.31858100000000
C      C      0.72114900000000     0.58411800000000     0.68141900000000
C      C      0.22114900000000     0.58411800000000     0.81858100000000
C      C      0.77885100000000     0.08411800000000     0.68141900000000
C      C      0.72114900000000     0.91588200000000     0.18141900000000
C      C      0.22114900000000     0.91588200000000     0.31858100000000
C      C      0.77885100000000     0.41588200000000     0.18141900000000
C      C      0.27885100000000     0.08411800000000     0.81858100000000
H      H      0.22198400000000     0.44827100000000     0.19540200000000
H      H      0.77801600000000     0.55172900000000     0.80459800000000
H      H      0.27801600000000     0.55172900000000     0.69540200000000
H      H      0.72198400000000     0.05172900000000     0.80459800000000
H      H      0.77801600000000     0.94827100000000     0.30459800000000
H      H      0.27801600000000     0.94827100000000     0.19540200000000
H      H      0.72198400000000     0.44827100000000     0.30459800000000
H      H      0.22198400000000     0.05172900000000     0.69540200000000
C      C      0.41059600000000     0.35356800000000     0.54349700000000
C      C      0.58940400000000     0.64643200000000     0.45650300000000
C      C      0.08940400000000     0.64643200000000     0.04349700000000
C      C      0.91059600000000     0.14643200000000     0.45650300000000
C      C      0.58940400000000     0.85356800000000     0.95650300000000
C      C      0.08940400000000     0.85356800000000     0.54349700000000
C      C      0.91059600000000     0.35356800000000     0.95650300000000
C      C      0.41059600000000     0.14643200000000     0.04349700000000
C      C      0.38451700000000     0.40249600000000     0.31904900000000
C      C      0.61548300000000     0.59750400000000     0.68095100000000
C      C      0.11548300000000     0.59750400000000     0.81904900000000
C      C      0.88451700000000     0.09750400000000     0.68095100000000
C      C      0.61548300000000     0.90249600000000     0.18095100000000
C      C      0.11548300000000     0.90249600000000     0.31904900000000
C      C      0.88451700000000     0.40249600000000     0.18095100000000
C      C      0.38451700000000     0.09750400000000     0.81904900000000
C      C      0.52980600000000     0.35122400000000     0.48094800000000
C      C      0.47019400000000     0.64877600000000     0.51905200000000
C      C      0.97019400000000     0.64877600000000     0.98094800000000
C      C      0.02980600000000     0.14877600000000     0.51905200000000
C      C      0.47019400000000     0.85122400000000     0.01905200000000
C      C      0.97019400000000     0.85122400000000     0.48094800000000
C      C      0.02980600000000     0.35122400000000     0.01905200000000
C      C      0.52980600000000     0.14877600000000     0.98094800000000
H      H      0.56375000000000     0.28294500000000     0.44940800000000
H      H      0.43625000000000     0.71705500000000     0.55059200000000
H      H      0.93625000000000     0.71705500000000     0.94940800000000
H      H      0.06375000000000     0.21705500000000     0.55059200000000
H      H      0.43625000000000     0.78294500000000     0.05059200000000
H      H      0.93625000000000     0.78294500000000     0.44940800000000
H      H      0.06375000000000     0.28294500000000     0.05059200000000
H      H      0.56375000000000     0.21705500000000     0.94940800000000
H      H      0.58087800000000     0.38891800000000     0.61124200000000
H      H      0.41912200000000     0.61108200000000     0.38875800000000
H      H      0.91912200000000     0.61108200000000     0.11124200000000
H      H      0.08087800000000     0.11108200000000     0.38875800000000
H      H      0.41912200000000     0.88891800000000     0.88875800000000
H      H      0.91912200000000     0.88891800000000     0.61124200000000
H      H      0.08087800000000     0.38891800000000     0.88875800000000
H      H      0.58087800000000     0.11108200000000     0.11124200000000
C      C      0.50036500000000     0.40597500000000     0.23052500000000
C      C      0.49963500000000     0.59402500000000     0.76947500000000
C      C      0.99963500000000     0.59402500000000     0.73052500000000
C      C      0.00036500000000     0.09402500000000     0.76947500000000
C      C      0.49963500000000     0.90597500000000     0.26947500000000
C      C      0.99963500000000     0.90597500000000     0.23052500000000
C      C      0.00036500000000     0.40597500000000     0.26947500000000
C      C      0.50036500000000     0.09402500000000     0.73052500000000
H      H      0.51680600000000     0.36896500000000     0.05636200000000
H      H      0.48319400000000     0.63103500000000     0.94363800000000
H      H      0.98319400000000     0.63103500000000     0.55636200000000
H      H      0.01680600000000     0.13103500000000     0.94363800000000
H      H      0.48319400000000     0.86896500000000     0.44363800000000
H      H      0.98319400000000     0.86896500000000     0.05636200000000
H      H      0.01680600000000     0.36896500000000     0.44363800000000
H      H      0.51680600000000     0.13103500000000     0.55636200000000
H      H      0.53461200000000     0.47487600000000     0.21707300000000
H      H      0.46538800000000     0.52512400000000     0.78292700000000
H      H      0.96538800000000     0.52512400000000     0.71707300000000
H      H      0.03461200000000     0.02512400000000     0.78292700000000
H      H      0.46538800000000     0.97487600000000     0.28292700000000
H      H      0.96538800000000     0.97487600000000     0.21707300000000
H      H      0.03461200000000     0.47487600000000     0.28292700000000
H      H      0.53461200000000     0.02512400000000     0.71707300000000
