data_default
_cell_volume           514.325855
_symmetry_space_group_name_H-M 'P 1'
_symmetry_Int_Tables_number 1
loop_
_symmetry_equiv_pos_site_id
_symmetry_equiv_pos_as_xyz
1 x,y,z
_cell_length_a         7.8168000000
_cell_length_b         5.4893000000
_cell_length_c        11.9865000000
_cell_angle_alpha        90.0000
_cell_angle_beta        90.0000
_cell_angle_gamma        90.0000
_cell_formula_units_Z 1
loop_
_atom_site_label
_atom_site_type_symbol
_atom_site_fract_x
_atom_site_fract_y
_atom_site_fract_z
C      C      0.11022000000000     0.62656000000000     0.14077000000000
C      C      0.88978000000000     0.37344000000000     0.64077000000000
C      C      0.38978000000000     0.12656000000000     0.64077000000000
C      C      0.61022000000000     0.87344000000000     0.14077000000000
C      C      0.15963000000000     0.59020000000000     0.02462000000000
C      C      0.84037000000000     0.40980000000000     0.52462000000000
C      C      0.34037000000000     0.09020000000000     0.52462000000000
C      C      0.65963000000000     0.90980000000000     0.02462000000000
C      C      0.07543000000000     0.38162000000000     0.01295000000000
C      C      0.92457000000000     0.61838000000000     0.51295000000000
C      C      0.42457000000000     0.88162000000000     0.51295000000000
C      C      0.57543000000000     0.11838000000000     0.01295000000000
C      C      0.00813000000000     0.37809000000000     0.12651000000000
C      C      0.99187000000000     0.62191000000000     0.62651000000000
C      C      0.49187000000000     0.87809000000000     0.62651000000000
C      C      0.50813000000000     0.12191000000000     0.12651000000000
C      C      0.24019000000000     0.64996000000000     0.92583000000000
C      C      0.75981000000000     0.35004000000000     0.42583000000000
C      C      0.25981000000000     0.14996000000000     0.42583000000000
C      C      0.74019000000000     0.85004000000000     0.92583000000000
C      C      0.09773000000000     0.29379000000000     0.90607000000000
C      C      0.90227000000000     0.70621000000000     0.40607000000000
C      C      0.40227000000000     0.79379000000000     0.40607000000000
C      C      0.59773000000000     0.20621000000000     0.90607000000000
O      O      0.19966000000000     0.46337000000000     0.85432000000000
O      O      0.80034000000000     0.53663000000000     0.35432000000000
O      O      0.30034000000000     0.96337000000000     0.35432000000000
O      O      0.69966000000000     0.03663000000000     0.85432000000000
H      H      0.21775000000000     0.61513000000000     0.19852000000000
H      H      0.78225000000000     0.38487000000000     0.69852000000000
H      H      0.28225000000000     0.11513000000000     0.69852000000000
H      H      0.71775000000000     0.88487000000000     0.19852000000000
H      H      0.02920000000000     0.78600000000000     0.15300000000000
H      H      0.97080000000000     0.21400000000000     0.65300000000000
H      H      0.47080000000000     0.28600000000000     0.65300000000000
H      H      0.52920000000000     0.71400000000000     0.15300000000000
H      H      0.05732000000000     0.22873000000000     0.17730000000000
H      H      0.94268000000000     0.77127000000000     0.67730000000000
H      H      0.44268000000000     0.72873000000000     0.67730000000000
H      H      0.55732000000000     0.27127000000000     0.17730000000000
H      H      0.86931000000000     0.39800000000000     0.12975000000000
H      H      0.13069000000000     0.60200000000000     0.62975000000000
H      H      0.63069000000000     0.89800000000000     0.62975000000000
H      H      0.36931000000000     0.10200000000000     0.12975000000000
H      H      0.31347000000000     0.79958000000000     0.90942000000000
H      H      0.68653000000000     0.20042000000000     0.40942000000000
H      H      0.18653000000000     0.29958000000000     0.40942000000000
H      H      0.81347000000000     0.70042000000000     0.90942000000000
H      H      0.04857000000000     0.13773000000000     0.87279000000000
H      H      0.95143000000000     0.86227000000000     0.37279000000000
H      H      0.45143000000000     0.63773000000000     0.37279000000000
H      H      0.54857000000000     0.36227000000000     0.87279000000000
