data_default
_cell_volume           507.348127
_symmetry_space_group_name_H-M 'P 1'
_symmetry_Int_Tables_number 1
loop_
_symmetry_equiv_pos_site_id
_symmetry_equiv_pos_as_xyz
1 x,y,z
_cell_length_a        11.5557000000
_cell_length_b         8.1120000000
_cell_length_c         5.4123000000
_cell_angle_alpha        90.0000
_cell_angle_beta        90.0000
_cell_angle_gamma        90.0000
_cell_formula_units_Z 1
loop_
_atom_site_label
_atom_site_type_symbol
_atom_site_fract_x
_atom_site_fract_y
_atom_site_fract_z
C      C      0.26757000000000     0.29138000000000     0.29748000000000
C      C      0.23243000000000     0.70862000000000     0.79748000000000
C      C      0.76757000000000     0.20862000000000     0.70252000000000
C      C      0.73243000000000     0.79138000000000     0.20252000000000
C      C      0.36983000000000     0.38439000000000     0.37111000000000
C      C      0.13017000000000     0.61561000000000     0.87111000000000
C      C      0.86983000000000     0.11561000000000     0.62889000000000
C      C      0.63017000000000     0.88439000000000     0.12889000000000
C      C      0.38601000000000     0.30260000000000     0.58071000000000
C      C      0.11399000000000     0.69740000000000     0.08071000000000
C      C      0.88601000000000     0.19740000000000     0.41929000000000
C      C      0.61399000000000     0.80260000000000     0.91929000000000
C      C      0.28702000000000     0.19287000000000     0.54805000000000
C      C      0.21298000000000     0.80713000000000     0.04805000000000
C      C      0.78702000000000     0.30713000000000     0.45195000000000
C      C      0.71298000000000     0.69287000000000     0.95195000000000
C      C      0.45422000000000     0.50341000000000     0.34417000000000
C      C      0.04578000000000     0.49659000000000     0.84417000000000
C      C      0.95422000000000     0.99659000000000     0.65583000000000
C      C      0.54578000000000     0.00341000000000     0.15583000000000
C      C      0.48198000000000     0.36430000000000     0.70128000000000
C      C      0.01802000000000     0.63570000000000     0.20128000000000
C      C      0.98198000000000     0.13570000000000     0.29872000000000
C      C      0.51802000000000     0.86430000000000     0.79872000000000
O      O      0.52241000000000     0.48776000000000     0.55061000000000
O      O      0.97759000000000     0.51224000000000     0.05061000000000
O      O      0.02241000000000     0.01224000000000     0.44939000000000
O      O      0.47759000000000     0.98776000000000     0.94939000000000
H      H      0.18915000000000     0.36610000000000     0.29454000000000
H      H      0.31085000000000     0.63390000000000     0.79454000000000
H      H      0.68915000000000     0.13390000000000     0.70546000000000
H      H      0.81085000000000     0.86610000000000     0.20546000000000
H      H      0.28111000000000     0.21822000000000     0.13084000000000
H      H      0.21889000000000     0.78178000000000     0.63084000000000
H      H      0.78111000000000     0.28178000000000     0.86916000000000
H      H      0.71889000000000     0.71822000000000     0.36916000000000
H      H      0.21900000000000     0.21118000000000     0.68529000000000
H      H      0.28100000000000     0.78882000000000     0.18529000000000
H      H      0.71900000000000     0.28882000000000     0.31471000000000
H      H      0.78100000000000     0.71118000000000     0.81471000000000
H      H      0.31179000000000     0.06411000000000     0.52241000000000
H      H      0.18821000000000     0.93589000000000     0.02241000000000
H      H      0.81179000000000     0.43589000000000     0.47759000000000
H      H      0.68821000000000     0.56411000000000     0.97759000000000
H      H      0.46355000000000     0.58479000000000     0.20196000000000
H      H      0.03645000000000     0.41521000000000     0.70196000000000
H      H      0.96355000000000     0.91521000000000     0.79804000000000
H      H      0.53645000000000     0.08479000000000     0.29804000000000
H      H      0.51555000000000     0.32595000000000     0.86587000000000
H      H      0.98445000000000     0.67405000000000     0.36587000000000
H      H      0.01555000000000     0.17405000000000     0.13413000000000
H      H      0.48445000000000     0.82595000000000     0.63413000000000
