data_default
_cell_volume          1021.771936
_symmetry_space_group_name_H-M 'P 1'
_symmetry_Int_Tables_number 1
loop_
_symmetry_equiv_pos_site_id
_symmetry_equiv_pos_as_xyz
1 x,y,z
_cell_length_a         5.3723000000
_cell_length_b        12.5699000000
_cell_length_c        15.1308000000
_cell_angle_alpha        90.0000
_cell_angle_beta        90.0000
_cell_angle_gamma        90.0000
_cell_formula_units_Z 1
loop_
_atom_site_label
_atom_site_type_symbol
_atom_site_fract_x
_atom_site_fract_y
_atom_site_fract_z
C      C      0.28949000000000     0.95467000000000     0.59289000000000
C      C      0.71051000000000     0.04533000000000     0.40711000000000
C      C      0.21051000000000     0.04533000000000     0.09289000000000
C      C      0.78949000000000     0.54533000000000     0.40711000000000
C      C      0.71051000000000     0.45467000000000     0.90711000000000
C      C      0.21051000000000     0.45467000000000     0.59289000000000
C      C      0.78949000000000     0.95467000000000     0.90711000000000
C      C      0.28949000000000     0.54533000000000     0.09289000000000
C      C      0.20073000000000     0.06411000000000     0.59655000000000
C      C      0.79927000000000     0.93589000000000     0.40345000000000
C      C      0.29927000000000     0.93589000000000     0.09655000000000
C      C      0.70073000000000     0.43589000000000     0.40345000000000
C      C      0.79927000000000     0.56411000000000     0.90345000000000
C      C      0.29927000000000     0.56411000000000     0.59655000000000
C      C      0.70073000000000     0.06411000000000     0.90345000000000
C      C      0.20073000000000     0.43589000000000     0.09655000000000
C      C      0.99796000000000     0.04211000000000     0.64326000000000
C      C      0.00204000000000     0.95789000000000     0.35674000000000
C      C      0.50204000000000     0.95789000000000     0.14326000000000
C      C      0.49796000000000     0.45789000000000     0.35674000000000
C      C      0.00204000000000     0.54211000000000     0.85674000000000
C      C      0.50204000000000     0.54211000000000     0.64326000000000
C      C      0.49796000000000     0.04211000000000     0.85674000000000
C      C      0.99796000000000     0.45789000000000     0.14326000000000
C      C      0.04676000000000     0.92796000000000     0.64885000000000
C      C      0.95324000000000     0.07204000000000     0.35115000000000
C      C      0.45324000000000     0.07204000000000     0.14885000000000
C      C      0.54676000000000     0.57204000000000     0.35115000000000
C      C      0.95324000000000     0.42796000000000     0.85115000000000
C      C      0.45324000000000     0.42796000000000     0.64885000000000
C      C      0.54676000000000     0.92796000000000     0.85115000000000
C      C      0.04676000000000     0.57204000000000     0.14885000000000
C      C      0.21158000000000     0.17172000000000     0.57907000000000
C      C      0.78842000000000     0.82828000000000     0.42093000000000
C      C      0.28842000000000     0.82828000000000     0.07907000000000
C      C      0.71158000000000     0.32828000000000     0.42093000000000
C      C      0.78842000000000     0.67172000000000     0.92093000000000
C      C      0.28842000000000     0.67172000000000     0.57907000000000
C      C      0.71158000000000     0.17172000000000     0.92093000000000
C      C      0.21158000000000     0.32828000000000     0.07907000000000
C      C      0.86581000000000     0.13463000000000     0.65854000000000
C      C      0.13419000000000     0.86537000000000     0.34146000000000
C      C      0.63419000000000     0.86537000000000     0.15854000000000
C      C      0.36581000000000     0.36537000000000     0.34146000000000
C      C      0.13419000000000     0.63463000000000     0.84146000000000
C      C      0.63419000000000     0.63463000000000     0.65854000000000
C      C      0.36581000000000     0.13463000000000     0.84146000000000
C      C      0.86581000000000     0.36537000000000     0.15854000000000
O      O      0.00241000000000     0.21316000000000     0.61825000000000
O      O      0.99759000000000     0.78684000000000     0.38175000000000
O      O      0.49759000000000     0.78684000000000     0.11825000000000
O      O      0.50241000000000     0.28684000000000     0.38175000000000
O      O      0.99759000000000     0.71316000000000     0.88175000000000
O      O      0.49759000000000     0.71316000000000     0.61825000000000
O      O      0.50241000000000     0.21316000000000     0.88175000000000
O      O      0.00241000000000     0.28684000000000     0.11825000000000
H      H      0.28999000000000     0.92180000000000     0.52617000000000
H      H      0.71001000000000     0.07820000000000     0.47383000000000
H      H      0.21001000000000     0.07820000000000     0.02617000000000
H      H      0.78999000000000     0.57820000000000     0.47383000000000
H      H      0.71001000000000     0.42180000000000     0.97383000000000
H      H      0.21001000000000     0.42180000000000     0.52617000000000
H      H      0.78999000000000     0.92180000000000     0.97383000000000
H      H      0.28999000000000     0.57820000000000     0.02617000000000
H      H      0.46377000000000     0.94298000000000     0.62847000000000
H      H      0.53623000000000     0.05702000000000     0.37153000000000
H      H      0.03623000000000     0.05702000000000     0.12847000000000
H      H      0.96377000000000     0.55702000000000     0.37153000000000
H      H      0.53623000000000     0.44298000000000     0.87153000000000
H      H      0.03623000000000     0.44298000000000     0.62847000000000
H      H      0.96377000000000     0.94298000000000     0.87153000000000
H      H      0.46377000000000     0.55702000000000     0.12847000000000
H      H      0.90979000000000     0.87977000000000     0.61369000000000
H      H      0.09021000000000     0.12023000000000     0.38631000000000
H      H      0.59021000000000     0.12023000000000     0.11369000000000
H      H      0.40979000000000     0.62023000000000     0.38631000000000
H      H      0.09021000000000     0.37977000000000     0.88631000000000
H      H      0.59021000000000     0.37977000000000     0.61369000000000
H      H      0.40979000000000     0.87977000000000     0.88631000000000
H      H      0.90979000000000     0.62023000000000     0.11369000000000
H      H      0.08488000000000     0.90034000000000     0.71590000000000
H      H      0.91512000000000     0.09966000000000     0.28410000000000
H      H      0.41512000000000     0.09966000000000     0.21590000000000
H      H      0.58488000000000     0.59966000000000     0.28410000000000
H      H      0.91512000000000     0.40034000000000     0.78410000000000
H      H      0.41512000000000     0.40034000000000     0.71590000000000
H      H      0.58488000000000     0.90034000000000     0.78410000000000
H      H      0.08488000000000     0.59966000000000     0.21590000000000
H      H      0.34566000000000     0.21139000000000     0.54449000000000
H      H      0.65434000000000     0.78861000000000     0.45551000000000
H      H      0.15434000000000     0.78861000000000     0.04449000000000
H      H      0.84566000000000     0.28861000000000     0.45551000000000
H      H      0.65434000000000     0.71139000000000     0.95551000000000
H      H      0.15434000000000     0.71139000000000     0.54449000000000
H      H      0.84566000000000     0.21139000000000     0.95551000000000
H      H      0.34566000000000     0.28861000000000     0.04449000000000
H      H      0.70275000000000     0.14302000000000     0.69232000000000
H      H      0.29725000000000     0.85698000000000     0.30768000000000
H      H      0.79725000000000     0.85698000000000     0.19232000000000
H      H      0.20275000000000     0.35698000000000     0.30768000000000
H      H      0.29725000000000     0.64302000000000     0.80768000000000
H      H      0.79725000000000     0.64302000000000     0.69232000000000
H      H      0.20275000000000     0.14302000000000     0.80768000000000
H      H      0.70275000000000     0.35698000000000     0.19232000000000
