data_default
_cell_volume           230.556796
_symmetry_space_group_name_H-M 'P 1'
_symmetry_Int_Tables_number 1
loop_
_symmetry_equiv_pos_site_id
_symmetry_equiv_pos_as_xyz
1 x,y,z
_cell_length_a         5.1135000000
_cell_length_b         6.8645000000
_cell_length_c         6.6383000000
_cell_angle_alpha        90.0000
_cell_angle_beta        81.6700
_cell_angle_gamma        90.0000
_cell_formula_units_Z 1
loop_
_atom_site_label
_atom_site_type_symbol
_atom_site_fract_x
_atom_site_fract_y
_atom_site_fract_z
H      H      0.47841000000000     0.26976000000000     0.16885000000000
H      H      0.52159000000000     0.76976000000000     0.83115000000000
H      H      0.87569000000000     0.07762000000000     0.12573000000000
H      H      0.12431000000000     0.57762000000000     0.87427000000000
C      C      0.89154000000000     0.20424000000000     0.05360000000000
C      C      0.10846000000000     0.70424000000000     0.94640000000000
C      C      0.63020000000000     0.33064000000000     0.08197000000000
C      C      0.36980000000000     0.83064000000000     0.91803000000000
C      C      0.86546000000000     0.19574000000000     0.82839000000000
C      C      0.13454000000000     0.69574000000000     0.17161000000000
C      C      0.63164000000000     0.30882000000000     0.85377000000000
C      C      0.36836000000000     0.80882000000000     0.14623000000000
C      C      0.55523000000000     0.32795000000000     0.67080000000000
C      C      0.44477000000000     0.82795000000000     0.32920000000000
C      C      0.92106000000000     0.15102000000000     0.63109000000000
C      C      0.07894000000000     0.65102000000000     0.36891000000000
H      H      0.40959000000000     0.39168000000000     0.61542000000000
H      H      0.59041000000000     0.89168000000000     0.38458000000000
H      H      0.05887000000000     0.07766000000000     0.54495000000000
H      H      0.94113000000000     0.57766000000000     0.45505000000000
O      O      0.73174000000000     0.23160000000000     0.53347000000000
O      O      0.26826000000000     0.73160000000000     0.46653000000000
H      H      0.65287000000000     0.46532000000000     0.12991000000000
H      H      0.34713000000000     0.96532000000000     0.87009000000000
H      H      0.04976000000000     0.27337000000000     0.08683000000000
H      H      0.95024000000000     0.77337000000000     0.91317000000000
