data_default
_cell_volume          1098.225702
_symmetry_space_group_name_H-M 'P 1'
_symmetry_Int_Tables_number 1
loop_
_symmetry_equiv_pos_site_id
_symmetry_equiv_pos_as_xyz
1 x,y,z
_cell_length_a        23.6338140458
_cell_length_b         3.7557833109
_cell_length_c        12.3724942756
_cell_angle_alpha        90.0000
_cell_angle_beta        90.0000
_cell_angle_gamma        90.0000
_cell_formula_units_Z 1
loop_
_atom_site_label
_atom_site_type_symbol
_atom_site_fract_x
_atom_site_fract_y
_atom_site_fract_z
C0_0   C      0.52908675321839     0.62674272736690     0.56578630934333
C0_0   C      0.47091324678161     0.37325727263310     0.06578630934333
C0_0   C      0.02908675321839     0.37325727263310     0.56578630934333
C0_0   C      0.97091324678161     0.62674272736690     0.06578630934333
C1_0   C      0.49149174424025     0.51386306152511     0.65529150455898
C1_0   C      0.50850825575975     0.48613693847489     0.15529150455898
C1_0   C      0.99149174424025     0.48613693847489     0.65529150455898
C1_0   C      0.00850825575975     0.51386306152511     0.15529150455898
O0_0   O      0.57521914743520     0.77015538018572     0.58357827329702
O0_0   O      0.42478085256480     0.22984461981428     0.08357827329702
O0_0   O      0.07521914743520     0.22984461981428     0.58357827329702
O0_0   O      0.92478085256480     0.77015538018572     0.08357827329702
O1_0   O      0.50872859031461     0.56415270254846     0.46700010004289
O1_0   O      0.49127140968539     0.43584729745154     0.96700010004289
O1_0   O      0.00872859031461     0.43584729745154     0.46700010004289
O1_0   O      0.99127140968539     0.56415270254846     0.96700010004289
C2_0   C      0.44435569464848     0.32137701859614     0.64079361395933
C2_0   C      0.55564430535152     0.67862298140386     0.14079361395933
C2_0   C      0.94435569464848     0.67862298140386     0.64079361395933
C2_0   C      0.05564430535152     0.32137701859614     0.14079361395933
H0_0   H      0.50479412632180     0.59782575724604     0.73571893865952
H0_0   H      0.49520587367820     0.40217424275396     0.23571893865952
H0_0   H      0.00479412632180     0.40217424275396     0.73571893865952
H0_0   H      0.99520587367820     0.59782575724604     0.23571893865952
H2_0   H      0.53690120487473     0.64738558649047     0.40863614160020
H2_0   H      0.46309879512527     0.35261441350953     0.90863614160020
H2_0   H      0.03690120487473     0.35261441350953     0.40863614160020
H2_0   H      0.96309879512527     0.64738558649047     0.90863614160020
C3_0   C      0.40433239330163     0.21757486143116     0.72875305131719
C3_0   C      0.59566760669837     0.78242513856884     0.22875305131719
C3_0   C      0.90433239330163     0.78242513856884     0.72875305131719
C3_0   C      0.09566760669837     0.21757486143116     0.22875305131719
H1_0   H      0.43235856567454     0.24012649724341     0.55944082194257
H1_0   H      0.56764143432546     0.75987350275659     0.05944082194257
H1_0   H      0.93235856567454     0.75987350275659     0.55944082194257
H1_0   H      0.06764143432546     0.24012649724341     0.05944082194257
O2_0   O      0.41906271158231     0.22797104640829     0.82707772554523
O2_0   O      0.58093728841769     0.77202895359171     0.32707772554523
O2_0   O      0.91906271158231     0.77202895359171     0.82707772554523
O2_0   O      0.08093728841769     0.22797104640829     0.32707772554523
O3_0   O      0.35517333716728     0.12028059402693     0.69664652199120
O3_0   O      0.64482666283272     0.87971940597307     0.19664652199120
O3_0   O      0.85517333716728     0.87971940597307     0.69664652199120
O3_0   O      0.14482666283272     0.12028059402693     0.19664652199120
H1_1   H      0.63177739365252     0.89160014758180     0.71690837904190
H1_1   H      0.36822260634748     0.10839985241820     0.21690837904190
H1_1   H      0.13177739365252     0.10839985241820     0.71690837904190
H1_1   H      0.86822260634748     0.89160014758180     0.21690837904190
C1_1   C      0.65498903866366     0.99274174383230     0.78688396676279
C1_1   C      0.34501096133634     0.00725825616770     0.28688396676279
C1_1   C      0.15498903866365     0.00725825616770     0.78688396676279
C1_1   C      0.84501096133634     0.99274174383230     0.28688396676279
C0_1   C      0.62421860581207     0.12173997088759     0.87667793295267
C0_1   C      0.37578139418793     0.87826002911241     0.37667793295267
C0_1   C      0.12421860581207     0.87826002911241     0.87667793295267
C0_1   C      0.87578139418793     0.12173997088759     0.37667793295267
N0_1   N      0.71114603332337     0.98669005092569     0.78111245536267
N0_1   N      0.28885396667663     0.01330994907431     0.28111245536267
N0_1   N      0.21114603332337     0.01330994907431     0.78111245536267
N0_1   N      0.78885396667663     0.98669005092569     0.28111245536267
C2_1   C      0.65329908418721     0.25256268520222     0.96438656051697
C2_1   C      0.34670091581279     0.74743731479778     0.46438656051697
C2_1   C      0.15329908418721     0.74743731479778     0.96438656051697
C2_1   C      0.84670091581279     0.25256268520222     0.46438656051697
H0_1   H      0.57813941710975     0.11664832771285     0.87557667808759
H0_1   H      0.42186058289025     0.88335167228715     0.37557667808759
H0_1   H      0.07813941710975     0.88335167228715     0.87557667808759
H0_1   H      0.92186058289025     0.11664832771285     0.37557667808759
C4_1   C      0.73944165495412     0.11896039899466     0.86679440667927
C4_1   C      0.26055834504588     0.88103960100534     0.36679440667927
C4_1   C      0.23944165495412     0.88103960100534     0.86679440667927
C4_1   C      0.76055834504588     0.11896039899466     0.36679440667927
C3_1   C      0.71306040988674     0.25772251966869     0.96130156498924
C3_1   C      0.28693959011326     0.74227748033131     0.46130156498924
C3_1   C      0.21306040988674     0.74227748033131     0.96130156498924
C3_1   C      0.78693959011326     0.25772251966869     0.46130156498924
H2_1   H      0.63209490702915     0.35048629841899     0.03637845319964
H2_1   H      0.36790509297085     0.64951370158101     0.53637845319964
H2_1   H      0.13209490702915     0.64951370158101     0.03637845319964
H2_1   H      0.86790509297085     0.35048629841899     0.53637845319964
N1_1   N      0.79727637923586     0.11486204779318     0.86153297287916
N1_1   N      0.20272362076414     0.88513795220682     0.36153297287916
N1_1   N      0.29727637923586     0.88513795220682     0.86153297287916
N1_1   N      0.70272362076414     0.11486204779318     0.36153297287916
C5_1   C      0.74723431438732     0.39239850299793     0.04580228644861
C5_1   C      0.25276568561268     0.60760149700207     0.54580228644861
C5_1   C      0.24723431438732     0.60760149700207     0.04580228644861
C5_1   C      0.75276568561268     0.39239850299793     0.54580228644861
C7_1   C      0.82931831234061     0.23758121138098     0.94183813333798
C7_1   C      0.17068168765939     0.76241878861902     0.44183813333798
C7_1   C      0.32931831234061     0.76241878861902     0.94183813333798
C7_1   C      0.67068168765939     0.23758121138098     0.44183813333798
H6_1   H      0.81911667799068     0.00464630470952     0.78964456062235
H6_1   H      0.18088332200932     0.99535369529048     0.28964456062235
H6_1   H      0.31911667799068     0.99535369529048     0.78964456062235
H6_1   H      0.68088332200932     0.00464630470952     0.28964456062235
C6_1   C      0.80527023171177     0.38269333625882     0.03545274433085
C6_1   C      0.19472976828823     0.61730666374118     0.53545274433085
C6_1   C      0.30527023171177     0.61730666374118     0.03545274433085
C6_1   C      0.69472976828823     0.38269333625882     0.53545274433085
H3_1   H      0.72706226710605     0.50440329426436     0.11740406996948
H3_1   H      0.27293773289395     0.49559670573564     0.61740406996948
H3_1   H      0.22706226710605     0.49559670573564     0.11740406996948
H3_1   H      0.77293773289395     0.50440329426436     0.61740406996948
H5_1   H      0.87469598184390     0.21134319873627     0.93015360359722
H5_1   H      0.12530401815610     0.78865680126373     0.43015360359722
H5_1   H      0.37469598184390     0.78865680126373     0.93015360359722
H5_1   H      0.62530401815610     0.21134319873627     0.43015360359722
H4_1   H      0.83337227250324     0.48409519842775     0.09752997089644
H4_1   H      0.16662772749676     0.51590480157225     0.59752997089644
H4_1   H      0.33337227250324     0.51590480157225     0.09752997089644
H4_1   H      0.66662772749676     0.48409519842775     0.59752997089644
