data_default
_cell_volume           545.047372
_symmetry_space_group_name_H-M 'P 1'
_symmetry_Int_Tables_number 1
loop_
_symmetry_equiv_pos_site_id
_symmetry_equiv_pos_as_xyz
1 x,y,z
_cell_length_a         3.7577773593
_cell_length_b        22.5763291441
_cell_length_c         6.4426513728
_cell_angle_alpha        90.0000
_cell_angle_beta        94.2834
_cell_angle_gamma        90.0000
_cell_formula_units_Z 1
loop_
_atom_site_label
_atom_site_type_symbol
_atom_site_fract_x
_atom_site_fract_y
_atom_site_fract_z
C0_0   C      0.19804110264868     0.56457821533950     0.56789425031474
C0_0   C      0.80195889735132     0.06457821533950     0.43210574968526
C1_0   C      0.03754256311170     0.51425870247536     0.44409012169210
C1_0   C      0.96245743688830     0.01425870247536     0.55590987830790
O0_0   O      0.33876381195450     0.60732209504523     0.48651288000005
O0_0   O      0.66123618804550     0.10732209504523     0.51348711999995
O1_0   O      0.18599013318640     0.56115414969329     0.77292974502612
O1_0   O      0.81400986681360     0.06115414969329     0.22707025497388
C2_0   C      0.07578174755564     0.50974406547438     0.23980523465587
C2_0   C      0.92421825244436     0.00974406547438     0.76019476534413
H0_0   H      0.88783896438255     0.48090723823230     0.52350271803413
H0_0   H      0.11216103561745     0.98090723823230     0.47649728196587
H2_0   H      0.06416983291702     0.52239197553439     0.82544724754695
H2_0   H      0.93583016708298     0.02239197553439     0.17455275245305
C3_0   C      0.91108514846241     0.46177388242433     0.10565594373142
C3_0   C      0.08891485153759     0.96177388242433     0.89434405626858
H1_0   H      0.22536451983165     0.54384315650818     0.16368463946089
H1_0   H      0.77463548016835     0.04384315650818     0.83631536053911
O2_0   O      0.78301138780440     0.41636541716871     0.18983648275492
O2_0   O      0.21698861219560     0.91636541716871     0.81016351724508
O3_0   O      0.90244777514215     0.46951324617435     0.90836196440497
O3_0   O      0.09755222485785     0.96951324617435     0.09163803559503
H2_1   H      0.94743570843834     0.66442826118968     0.31631061443774
H2_1   H      0.05256429156166     0.16442826118968     0.68368938556226
C2_1   C      0.81071875378731     0.69156431662448     0.19510854932916
C2_1   C      0.18928124621269     0.19156431662448     0.80489145067084
C0_1   C      0.69020515404775     0.66787212967162     0.00625894982262
C0_1   C      0.30979484595225     0.16787212967162     0.99374105017738
C3_1   C      0.75707139691376     0.75278340590123     0.22921612614582
C3_1   C      0.24292860308624     0.25278340590123     0.77078387385418
C1_1   C      0.51862908583805     0.70496220034407     0.85315742804240
C1_1   C      0.48137091416195     0.20496220034407     0.14684257195760
H0_1   H      0.72317753113129     0.62124917895832     0.97045215053179
H0_1   H      0.27682246886871     0.12124917895832     0.02954784946821
C4_1   C      0.58016338018859     0.78578685917293     0.06306818197604
C4_1   C      0.41983661981141     0.28578685917293     0.93693181802396
C5_1   C      0.86714833848563     0.78264626408494     0.41605745429489
C5_1   C      0.13285166151437     0.28264626408494     0.58394254570511
N0_1   N      0.46244149564799     0.76259104791609     0.87785578102094
N0_1   N      0.53755850435201     0.26259104791609     0.12214421897906
H1_1   H      0.42467290981182     0.68516903377096     0.70405248413756
H1_1   H      0.57532709018818     0.18516903377096     0.29594751586244
N1_1   N      0.52119403854786     0.84493840845737     0.09198507602464
N1_1   N      0.47880596145214     0.34493840845737     0.90801492397535
C6_1   C      0.79932006929159     0.84232545742534     0.43696823644850
C6_1   C      0.20067993070841     0.34232545742534     0.56303176355150
H3_1   H      0.00673944536362     0.75850315707213     0.54410958729059
H3_1   H      0.99326055463638     0.25850315707213     0.45589041270941
C7_1   C      0.62198309091970     0.87238733900063     0.26974379739486
C7_1   C      0.37801690908030     0.37238733900063     0.73025620260514
H6_1   H      0.38728245337856     0.87177612315267     0.96710892810799
H6_1   H      0.61271754662144     0.37177612315267     0.03289107189201
H4_1   H      0.88413880453799     0.86647294945924     0.57848640426799
H4_1   H      0.11586119546201     0.36647294945924     0.42151359573201
H5_1   H      0.55241320986326     0.91910260914465     0.27350580611645
H5_1   H      0.44758679013674     0.41910260914465     0.72649419388355
