data_default
_cell_volume          1094.100706
_symmetry_space_group_name_H-M 'P 1'
_symmetry_Int_Tables_number 1
loop_
_symmetry_equiv_pos_site_id
_symmetry_equiv_pos_as_xyz
1 x,y,z
_cell_length_a         3.7480000000
_cell_length_b        22.1820000000
_cell_length_c        13.2097000000
_cell_angle_alpha        90.0000
_cell_angle_beta        94.9700
_cell_angle_gamma        90.0000
_cell_formula_units_Z 1
loop_
_atom_site_label
_atom_site_type_symbol
_atom_site_fract_x
_atom_site_fract_y
_atom_site_fract_z
N1     N      0.91189000000000     0.05004000000000     0.86734000000000
N1     N      0.41189000000000     0.55004000000000     0.86734000000000
N1     N      0.91189000000000     0.94996000000000     0.36734000000000
N1     N      0.41189000000000     0.44996000000000     0.36734000000000
N2     N      0.70238000000000     0.97721000000000     0.75503000000000
N2     N      0.20238000000000     0.47721000000000     0.75503000000000
N2     N      0.70238000000000     0.02279000000000     0.25503000000000
N2     N      0.20238000000000     0.52279000000000     0.25503000000000
C1     C      0.95807000000000     0.13258000000000     0.70832000000000
C1     C      0.45807000000000     0.63258000000000     0.70832000000000
C1     C      0.95807000000000     0.86742000000000     0.20832000000000
C1     C      0.45807000000000     0.36742000000000     0.20832000000000
C2     C      0.83402000000000     0.07293000000000     0.68750000000000
C2     C      0.33402000000000     0.57293000000000     0.68750000000000
C2     C      0.83402000000000     0.92707000000000     0.18750000000000
C2     C      0.33402000000000     0.42707000000000     0.18750000000000
C3     C      0.81968000000000     0.03479000000000     0.77144000000000
C3     C      0.31968000000000     0.53479000000000     0.77144000000000
C3     C      0.81968000000000     0.96521000000000     0.27144000000000
C3     C      0.31968000000000     0.46521000000000     0.27144000000000
C4     C      0.02431000000000     0.10500000000000     0.88373000000000
C4     C      0.52431000000000     0.60500000000000     0.88373000000000
C4     C      0.02431000000000     0.89500000000000     0.38373000000000
C4     C      0.52431000000000     0.39500000000000     0.38373000000000
C5     C      0.05271000000000     0.14846000000000     0.80610000000000
C5     C      0.55271000000000     0.64846000000000     0.80610000000000
C5     C      0.05271000000000     0.85154000000000     0.30610000000000
C5     C      0.55271000000000     0.35154000000000     0.30610000000000
C6     C      0.60149000000000     0.95549000000000     0.66399000000000
C6     C      0.10149000000000     0.45549000000000     0.66399000000000
C6     C      0.60149000000000     0.04451000000000     0.16399000000000
C6     C      0.10149000000000     0.54451000000000     0.16399000000000
C7     C      0.61042000000000     0.99134000000000     0.57827000000000
C7     C      0.11042000000000     0.49134000000000     0.57827000000000
C7     C      0.61042000000000     0.00866000000000     0.07827000000000
C7     C      0.11042000000000     0.50866000000000     0.07827000000000
C8     C      0.72662000000000     0.04992000000000     0.59029000000000
C8     C      0.22662000000000     0.54992000000000     0.59029000000000
C8     C      0.72662000000000     0.95008000000000     0.09029000000000
C8     C      0.22662000000000     0.45008000000000     0.09029000000000
O1     O      0.04478000000000     0.13703000000000     0.24835000000000
O1     O      0.54478000000000     0.63703000000000     0.24835000000000
O1     O      0.04478000000000     0.86297000000000     0.74835000000000
O1     O      0.54478000000000     0.36297000000000     0.74835000000000
O2     O      0.33665000000000     0.09446000000000     0.38511000000000
O2     O      0.83665000000000     0.59446000000000     0.38511000000000
O2     O      0.33665000000000     0.90554000000000     0.88511000000000
O2     O      0.83665000000000     0.40554000000000     0.88511000000000
O3     O      0.15405000000000     0.30953000000000     0.50374000000000
O3     O      0.65405000000000     0.80953000000000     0.50374000000000
O3     O      0.15405000000000     0.69047000000000     0.00374000000000
O3     O      0.65405000000000     0.19047000000000     0.00374000000000
O4     O      0.44124000000000     0.26282000000000     0.63309000000000
O4     O      0.94124000000000     0.76282000000000     0.63309000000000
O4     O      0.44124000000000     0.73718000000000     0.13309000000000
O4     O      0.94124000000000     0.23718000000000     0.13309000000000
C12    C      0.30707000000000     0.20527000000000     0.48665000000000
C12    C      0.80707000000000     0.70527000000000     0.48665000000000
C12    C      0.30707000000000     0.79473000000000     0.98665000000000
C12    C      0.80707000000000     0.29473000000000     0.98665000000000
C13    C      0.28680000000000     0.26384000000000     0.53741000000000
C13    C      0.78680000000000     0.76384000000000     0.53741000000000
C13    C      0.28680000000000     0.73616000000000     0.03741000000000
C13    C      0.78680000000000     0.23616000000000     0.03741000000000
C14    C      0.17057000000000     0.19663000000000     0.39176000000000
C14    C      0.67057000000000     0.69663000000000     0.39176000000000
C14    C      0.17057000000000     0.80337000000000     0.89176000000000
C14    C      0.67057000000000     0.30337000000000     0.89176000000000
C15    C      0.18672000000000     0.13566000000000     0.33581000000000
C15    C      0.68672000000000     0.63566000000000     0.33581000000000
C15    C      0.18672000000000     0.86434000000000     0.83581000000000
C15    C      0.68672000000000     0.36434000000000     0.83581000000000
H1     H      0.09839000000000     0.11695000000000     0.96162000000000
H1     H      0.59839000000000     0.61695000000000     0.96162000000000
H1     H      0.09839000000000     0.88305000000000     0.46162000000000
H1     H      0.59839000000000     0.38305000000000     0.46162000000000
H2     H      0.14797000000000     0.19289000000000     0.82591000000000
H2     H      0.64797000000000     0.69289000000000     0.82591000000000
H2     H      0.14797000000000     0.80711000000000     0.32591000000000
H2     H      0.64797000000000     0.30711000000000     0.32591000000000
H3     H      0.97508000000000     0.16398000000000     0.64696000000000
H3     H      0.47508000000000     0.66398000000000     0.64696000000000
H3     H      0.97508000000000     0.83602000000000     0.14696000000000
H3     H      0.47508000000000     0.33602000000000     0.14696000000000
H4     H      0.73604000000000     0.07865000000000     0.52498000000000
H4     H      0.23604000000000     0.57865000000000     0.52498000000000
H4     H      0.73604000000000     0.92135000000000     0.02498000000000
H4     H      0.23604000000000     0.42135000000000     0.02498000000000
H5     H      0.52750000000000     0.97295000000000     0.50495000000000
H5     H      0.02750000000000     0.47295000000000     0.50495000000000
H5     H      0.52750000000000     0.02705000000000     0.00495000000000
H5     H      0.02750000000000     0.52705000000000     0.00495000000000
H6     H      0.51398000000000     0.90941000000000     0.66037000000000
H6     H      0.01398000000000     0.40941000000000     0.66037000000000
H6     H      0.51398000000000     0.09059000000000     0.16037000000000
H6     H      0.01398000000000     0.59059000000000     0.16037000000000
H7     H      0.69599000000000     0.95132000000000     0.81704000000000
H7     H      0.19599000000000     0.45132000000000     0.81704000000000
H7     H      0.69599000000000     0.04868000000000     0.31704000000000
H7     H      0.19599000000000     0.54868000000000     0.31704000000000
H8     H      0.04022000000000     0.23333000000000     0.34984000000000
H8     H      0.54022000000000     0.73333000000000     0.34984000000000
H8     H      0.04022000000000     0.76667000000000     0.84984000000000
H8     H      0.54022000000000     0.26667000000000     0.84984000000000
H9     H      0.43713000000000     0.16886000000000     0.52871000000000
H9     H      0.93713000000000     0.66886000000000     0.52871000000000
H9     H      0.43713000000000     0.83114000000000     0.02871000000000
H9     H      0.93713000000000     0.33114000000000     0.02871000000000
H10    H      0.41581000000000     0.30205000000000     0.65966000000000
H10    H      0.91581000000000     0.80205000000000     0.65966000000000
H10    H      0.41581000000000     0.69795000000000     0.15966000000000
H10    H      0.91581000000000     0.19795000000000     0.15966000000000
