data_default
_cell_volume          1071.680145
_symmetry_space_group_name_H-M 'P 1'
_symmetry_Int_Tables_number 1
loop_
_symmetry_equiv_pos_site_id
_symmetry_equiv_pos_as_xyz
1 x,y,z
_cell_length_a        21.2912000000
_cell_length_b        13.8880000000
_cell_length_c         3.6243100000
_cell_angle_alpha        90.0000
_cell_angle_beta        90.0000
_cell_angle_gamma        90.0000
_cell_formula_units_Z 1
loop_
_atom_site_label
_atom_site_type_symbol
_atom_site_fract_x
_atom_site_fract_y
_atom_site_fract_z
C1     C      0.95730000000000     0.60384000000000     0.21629000000000
C1     C      0.54270000000000     0.39616000000000     0.71629000000000
C1     C      0.45730000000000     0.89616000000000     0.78371000000000
C1     C      0.04270000000000     0.10384000000000     0.28371000000000
C2     C      0.04766000000000     0.50522000000000     0.25084000000000
C2     C      0.45234000000000     0.49478000000000     0.75084000000000
C2     C      0.54766000000000     0.99478000000000     0.74916000000000
C2     C      0.95234000000000     0.00522000000000     0.24916000000000
C3     C      0.08209000000000     0.58361000000000     0.38968000000000
C3     C      0.41791000000000     0.41639000000000     0.88968000000000
C3     C      0.58209000000000     0.91639000000000     0.61032000000000
C3     C      0.91791000000000     0.08361000000000     0.11032000000000
C4     C      0.05372000000000     0.67316000000000     0.43416000000000
C4     C      0.44628000000000     0.32684000000000     0.93416000000000
C4     C      0.55372000000000     0.82684000000000     0.56584000000000
C4     C      0.94628000000000     0.17316000000000     0.06584000000000
C5     C      0.99043000000000     0.68224000000000     0.35214000000000
C5     C      0.50957000000000     0.31776000000000     0.85214000000000
C5     C      0.49043000000000     0.81776000000000     0.64786000000000
C5     C      0.00957000000000     0.18224000000000     0.14786000000000
H1     H      0.90697000000000     0.60528000000000     0.15651000000000
H1     H      0.59303000000000     0.39472000000000     0.65651000000000
H1     H      0.40697000000000     0.89472000000000     0.84349000000000
H1     H      0.09303000000000     0.10528000000000     0.34349000000000
C6     C      0.14467000000000     0.57100000000000     0.48880000000000
C6     C      0.35533000000000     0.42900000000000     0.98880000000000
C6     C      0.64467000000000     0.92900000000000     0.51120000000000
C6     C      0.85533000000000     0.07100000000000     0.01120000000000
H2     H      0.07976000000000     0.73454000000000     0.54079000000000
H2     H      0.42024000000000     0.26546000000000     0.04079000000000
H2     H      0.57976000000000     0.76546000000000     0.45921000000000
H2     H      0.92024000000000     0.23454000000000     0.95921000000000
H3     H      0.96642000000000     0.75019000000000     0.40120000000000
H3     H      0.53358000000000     0.24981000000000     0.90120000000000
H3     H      0.46642000000000     0.74981000000000     0.59880000000000
H3     H      0.03358000000000     0.25019000000000     0.09880000000000
C7     C      0.17059000000000     0.48014000000000     0.44532000000000
C7     C      0.32941000000000     0.51986000000000     0.94532000000000
C7     C      0.67059000000000     0.01986000000000     0.55468000000000
C7     C      0.82941000000000     0.98014000000000     0.05468000000000
C8     C      0.13430000000000     0.40553000000000     0.30721000000000
C8     C      0.36570000000000     0.59447000000000     0.80721000000000
C8     C      0.63430000000000     0.09447000000000     0.69279000000000
C8     C      0.86570000000000     0.90553000000000     0.19279000000000
H4     H      0.17255000000000     0.62988000000000     0.60305000000000
H4     H      0.32745000000000     0.37012000000000     0.10305000000000
H4     H      0.67255000000000     0.87012000000000     0.39695000000000
H4     H      0.82745000000000     0.12988000000000     0.89695000000000
H5     H      0.21888000000000     0.46539000000000     0.52343000000000
H5     H      0.28112000000000     0.53461000000000     0.02343000000000
H5     H      0.71888000000000     0.03461000000000     0.47657000000000
H5     H      0.78112000000000     0.96539000000000     0.97657000000000
H6     H      0.15320000000000     0.33327000000000     0.27347000000000
H6     H      0.34680000000000     0.66673000000000     0.77347000000000
H6     H      0.65320000000000     0.16673000000000     0.72653000000000
H6     H      0.84680000000000     0.83327000000000     0.22653000000000
N1     N      0.07411000000000     0.41841000000000     0.20662000000000
N1     N      0.42589000000000     0.58159000000000     0.70662000000000
N1     N      0.57411000000000     0.08159000000000     0.79338000000000
N1     N      0.92589000000000     0.91841000000000     0.29338000000000
N2     N      0.98796000000000     0.52045000000000     0.14844000000000
N2     N      0.51204000000000     0.47955000000000     0.64844000000000
N2     N      0.48796000000000     0.97955000000000     0.85156000000000
N2     N      0.01204000000000     0.02045000000000     0.35156000000000
H7     H      0.96446000000000     0.46375000000000     0.03180000000000
H7     H      0.53554000000000     0.53625000000000     0.53180000000000
H7     H      0.46446000000000     0.03625000000000     0.96820000000000
H7     H      0.03554000000000     0.96375000000000     0.46820000000000
C1     C      0.32378000000000     0.14920000000000     0.51186000000000
C1     C      0.17622000000000     0.85080000000000     0.01186000000000
C1     C      0.82378000000000     0.35080000000000     0.48814000000000
C1     C      0.67622000000000     0.64920000000000     0.98814000000000
H1     H      0.34214000000000     0.22195000000000     0.53143000000000
H1     H      0.15786000000000     0.77805000000000     0.03143000000000
H1     H      0.84214000000000     0.27805000000000     0.46857000000000
H1     H      0.65786000000000     0.72195000000000     0.96857000000000
C2     C      0.26369000000000     0.13797000000000     0.62195000000000
C2     C      0.23631000000000     0.86203000000000     0.12195000000000
C2     C      0.76369000000000     0.36203000000000     0.37805000000000
C2     C      0.73631000000000     0.63797000000000     0.87805000000000
H2     H      0.24508000000000     0.06535000000000     0.60172000000000
H2     H      0.25492000000000     0.93465000000000     0.10172000000000
H2     H      0.74508000000000     0.43465000000000     0.39828000000000
H2     H      0.75492000000000     0.56535000000000     0.89828000000000
C3     C      0.22229000000000     0.21372000000000     0.76106000000000
C3     C      0.27771000000000     0.78628000000000     0.26106000000000
C3     C      0.72229000000000     0.28628000000000     0.23894000000000
C3     C      0.77771000000000     0.71372000000000     0.73894000000000
C4     C      0.36913000000000     0.07783000000000     0.36563000000000
C4     C      0.13087000000000     0.92217000000000     0.86563000000000
C4     C      0.86913000000000     0.42217000000000     0.63437000000000
C4     C      0.63087000000000     0.57783000000000     0.13437000000000
O1     O      0.42085000000000     0.10551000000000     0.27243000000000
O1     O      0.07915000000000     0.89449000000000     0.77243000000000
O1     O      0.92085000000000     0.39449000000000     0.72757000000000
O1     O      0.57915000000000     0.60551000000000     0.22757000000000
O2     O      0.23817000000000     0.29730000000000     0.78129000000000
O2     O      0.26183000000000     0.70270000000000     0.28129000000000
O2     O      0.73817000000000     0.20270000000000     0.21871000000000
O2     O      0.76183000000000     0.79730000000000     0.71871000000000
O3     O      0.35450000000000     0.99397000000000     0.32390000000000
O3     O      0.14550000000000     0.00603000000000     0.82390000000000
O3     O      0.85450000000000     0.50603000000000     0.67610000000000
O3     O      0.64550000000000     0.49397000000000     0.17610000000000
O4     O      0.16584000000000     0.18732000000000     0.84015000000000
O4     O      0.33416000000000     0.81268000000000     0.34015000000000
O4     O      0.66584000000000     0.31268000000000     0.15985000000000
O4     O      0.83416000000000     0.68732000000000     0.65985000000000
H3     H      0.16601000000000     0.11482000000000     0.81633000000000
H3     H      0.33399000000000     0.88518000000000     0.31633000000000
H3     H      0.66601000000000     0.38518000000000     0.18367000000000
H3     H      0.83399000000000     0.61482000000000     0.68367000000000
