data_default
_cell_volume          1046.220067
_symmetry_space_group_name_H-M 'P 1'
_symmetry_Int_Tables_number 1
loop_
_symmetry_equiv_pos_site_id
_symmetry_equiv_pos_as_xyz
1 x,y,z
_cell_length_a         9.0750000000
_cell_length_b        22.2659000000
_cell_length_c        14.9126000000
_cell_angle_alpha        90.0000
_cell_angle_beta       159.6837
_cell_angle_gamma        90.0000
_cell_formula_units_Z 1
loop_
_atom_site_label
_atom_site_type_symbol
_atom_site_fract_x
_atom_site_fract_y
_atom_site_fract_z
C1     C      0.94359000000000     0.75065000000000     0.89754000000000
C1     C      0.05641000000000     0.25065000000000     0.60246000000000
C1     C      0.05641000000000     0.24935000000000     0.10246000000000
C1     C      0.94359000000000     0.74935000000000     0.39754000000000
O2     O      0.94937000000000     0.73172000000000     0.81521000000000
O2     O      0.05063000000000     0.23172000000000     0.68479000000000
O2     O      0.05063000000000     0.26828000000000     0.18479000000000
O2     O      0.94937000000000     0.76828000000000     0.31521000000000
O3     O      0.92238000000000     0.80441000000000     0.90032000000000
O3     O      0.07762000000000     0.30441000000000     0.59968000000000
O3     O      0.07762000000000     0.19559000000000     0.09968000000000
O3     O      0.92238000000000     0.69559000000000     0.40032000000000
C4     C      0.96577000000000     0.70568000000000     0.98202000000000
C4     C      0.03423000000000     0.20568000000000     0.51798000000000
C4     C      0.03423000000000     0.29432000000000     0.01798000000000
C4     C      0.96577000000000     0.79432000000000     0.48202000000000
C5     C      0.94984000000000     0.72076000000000     0.06183000000000
C5     C      0.05016000000000     0.22076000000000     0.43817000000000
C5     C      0.05016000000000     0.27924000000000     0.93817000000000
C5     C      0.94984000000000     0.77924000000000     0.56183000000000
H6     H      0.99184000000000     0.65902000000000     0.97628000000000
H6     H      0.00816000000000     0.15902000000000     0.52372000000000
H6     H      0.00816000000000     0.34098000000000     0.02372000000000
H6     H      0.99184000000000     0.84098000000000     0.47628000000000
H7     H      0.92518000000000     0.76720000000000     0.06916000000000
H7     H      0.07482000000000     0.26720000000000     0.43084000000000
H7     H      0.07482000000000     0.23280000000000     0.93084000000000
H7     H      0.92518000000000     0.73280000000000     0.56916000000000
C8     C      0.95778000000000     0.67562000000000     0.13602000000000
C8     C      0.04222000000000     0.17562000000000     0.36398000000000
C8     C      0.04222000000000     0.32438000000000     0.86398000000000
C8     C      0.95778000000000     0.82438000000000     0.63602000000000
O9     O      0.98277000000000     0.62216000000000     0.12783000000000
O9     O      0.01723000000000     0.12216000000000     0.37217000000000
O9     O      0.01723000000000     0.37784000000000     0.87217000000000
O9     O      0.98277000000000     0.87784000000000     0.62783000000000
O10    O      0.93133000000000     0.69499000000000     0.19850000000000
O10    O      0.06867000000000     0.19499000000000     0.30150000000000
O10    O      0.06867000000000     0.30501000000000     0.80150000000000
O10    O      0.93133000000000     0.80501000000000     0.69850000000000
H28    H      0.93088000000000     0.76799000000000     0.76639000000000
H28    H      0.06912000000000     0.26799000000000     0.73361000000000
H28    H      0.06912000000000     0.23201000000000     0.23361000000000
H28    H      0.93088000000000     0.73201000000000     0.26639000000000
H11    H      0.63118000000000     0.39189000000000     0.94216000000000
H11    H      0.36882000000000     0.89189000000000     0.55784000000000
H11    H      0.36882000000000     0.60811000000000     0.05784000000000
H11    H      0.63118000000000     0.10811000000000     0.44216000000000
C12    C      0.78461000000000     0.41081000000000     0.08942000000000
C12    C      0.21539000000000     0.91081000000000     0.41058000000000
C12    C      0.21539000000000     0.58919000000000     0.91058000000000
C12    C      0.78461000000000     0.08919000000000     0.58942000000000
C13    C      0.87970000000000     0.37547000000000     0.21768000000000
C13    C      0.12030000000000     0.87547000000000     0.28232000000000
C13    C      0.12030000000000     0.62453000000000     0.78232000000000
C13    C      0.87970000000000     0.12453000000000     0.71768000000000
C14    C      0.05265000000000     0.49243000000000     0.31140000000000
C14    C      0.94735000000000     0.99243000000000     0.18860000000000
C14    C      0.94735000000000     0.50757000000000     0.68860000000000
C14    C      0.05265000000000     0.00757000000000     0.81140000000000
C15    C      0.07369000000000     0.40051000000000     0.40232000000000
C15    C      0.92631000000000     0.90051000000000     0.09768000000000
C15    C      0.92631000000000     0.59949000000000     0.59768000000000
C15    C      0.07369000000000     0.09949000000000     0.90232000000000
H16    H      0.79292000000000     0.32771000000000     0.16586000000000
H16    H      0.20708000000000     0.82771000000000     0.33414000000000
H16    H      0.20708000000000     0.67229000000000     0.83414000000000
H16    H      0.79292000000000     0.17229000000000     0.66586000000000
C17    C      0.17076000000000     0.46229000000000     0.45552000000000
C17    C      0.82924000000000     0.96229000000000     0.04448000000000
C17    C      0.82924000000000     0.53771000000000     0.54448000000000
C17    C      0.17076000000000     0.03771000000000     0.95552000000000
H18    H      0.15013000000000     0.37306000000000     0.50508000000000
H18    H      0.84987000000000     0.87306000000000     0.99492000000000
H18    H      0.84987000000000     0.62694000000000     0.49492000000000
H18    H      0.15013000000000     0.12694000000000     0.00508000000000
C19    C      0.37297000000000     0.49356000000000     0.64213000000000
C19    C      0.62703000000000     0.99356000000000     0.85787000000000
C19    C      0.62703000000000     0.50644000000000     0.35787000000000
C19    C      0.37297000000000     0.00644000000000     0.14213000000000
C20    C      0.28547000000000     0.58183000000000     0.49500000000000
C20    C      0.71453000000000     0.08183000000000     0.00500000000000
C20    C      0.71453000000000     0.41817000000000     0.50500000000000
C20    C      0.28547000000000     0.91817000000000     0.99500000000000
C21    C      0.41145000000000     0.55423000000000     0.64498000000000
C21    C      0.58855000000000     0.05423000000000     0.85502000000000
C21    C      0.58855000000000     0.44577000000000     0.35502000000000
C21    C      0.41145000000000     0.94577000000000     0.14498000000000
H22    H      0.47734000000000     0.47310000000000     0.76462000000000
H22    H      0.52266000000000     0.97310000000000     0.73538000000000
H22    H      0.52266000000000     0.52690000000000     0.23538000000000
H22    H      0.47734000000000     0.02690000000000     0.26462000000000
H23    H      0.33025000000000     0.63049000000000     0.51092000000000
H23    H      0.66975000000000     0.13049000000000     0.98908000000000
H23    H      0.66975000000000     0.36951000000000     0.48908000000000
H23    H      0.33025000000000     0.86951000000000     0.01092000000000
H24    H      0.55347000000000     0.58334000000000     0.77778000000000
H24    H      0.44653000000000     0.08334000000000     0.72222000000000
H24    H      0.44653000000000     0.41666000000000     0.22222000000000
H24    H      0.55347000000000     0.91666000000000     0.27778000000000
N25    N      0.86810000000000     0.47029000000000     0.13337000000000
N25    N      0.13190000000000     0.97029000000000     0.36663000000000
N25    N      0.13190000000000     0.52971000000000     0.86663000000000
N25    N      0.86810000000000     0.02971000000000     0.63337000000000
N26    N      0.10601000000000     0.55160000000000     0.32485000000000
N26    N      0.89399000000000     0.05160000000000     0.17515000000000
N26    N      0.89399000000000     0.44840000000000     0.67515000000000
N26    N      0.10601000000000     0.94840000000000     0.82485000000000
H27    H      0.01196000000000     0.56910000000000     0.21229000000000
H27    H      0.98804000000000     0.06910000000000     0.28771000000000
H27    H      0.98804000000000     0.43090000000000     0.78771000000000
H27    H      0.01196000000000     0.93090000000000     0.71229000000000
