data_default
_cell_volume          1099.708067
_symmetry_space_group_name_H-M 'P 1'
_symmetry_Int_Tables_number 1
loop_
_symmetry_equiv_pos_site_id
_symmetry_equiv_pos_as_xyz
1 x,y,z
_cell_length_a        22.5687000000
_cell_length_b         3.8493000000
_cell_length_c        12.6587000000
_cell_angle_alpha        90.0000
_cell_angle_beta        90.0000
_cell_angle_gamma        90.0000
_cell_formula_units_Z 1
loop_
_atom_site_label
_atom_site_type_symbol
_atom_site_fract_x
_atom_site_fract_y
_atom_site_fract_z
O1     O      0.40416600000000     0.45992300000000     0.93685200000000
O1     O      0.59583400000000     0.54007700000000     0.43685200000000
O1     O      0.90416600000000     0.04007700000000     0.93685200000000
O1     O      0.09583400000000     0.95992300000000     0.43685200000000
O2     O      0.35428500000000     0.25569800000000     0.79254400000000
O2     O      0.64571500000000     0.74430200000000     0.29254400000000
O2     O      0.85428500000000     0.24430200000000     0.79254400000000
O2     O      0.14571500000000     0.75569800000000     0.29254400000000
O3     O      0.18888300000000     0.43174000000000     0.06897000000000
O3     O      0.81111700000000     0.56826000000000     0.56897000000000
O3     O      0.68888300000000     0.06826000000000     0.06897000000000
O3     O      0.31111700000000     0.93174000000000     0.56897000000000
O4     O      0.24193300000000     0.71262200000000     0.19250000000000
O4     O      0.75806700000000     0.28737800000000     0.69250000000000
O4     O      0.74193300000000     0.78737800000000     0.19250000000000
O4     O      0.25806700000000     0.21262200000000     0.69250000000000
H1     H      0.20613700000000     0.70419600000000     0.21808000000000
H1     H      0.79386300000000     0.29580400000000     0.71808000000000
H1     H      0.70613700000000     0.79580400000000     0.21808000000000
H1     H      0.29386300000000     0.20419600000000     0.71808000000000
C1     C      0.35944600000000     0.36113100000000     0.88609900000000
C1     C      0.64055400000000     0.63886900000000     0.38609900000000
C1     C      0.85944600000000     0.13886900000000     0.88609900000000
C1     C      0.14055400000000     0.86113100000000     0.38609900000000
C2     C      0.30010300000000     0.37415300000000     0.94643400000000
C2     C      0.69989700000000     0.62584700000000     0.44643400000000
C2     C      0.80010300000000     0.12584700000000     0.94643400000000
C2     C      0.19989700000000     0.87415300000000     0.44643400000000
C3     C      0.29358100000000     0.53161000000000     0.04053000000000
C3     C      0.70641900000000     0.46839000000000     0.54053000000000
C3     C      0.79358100000000     0.96839000000000     0.04053000000000
C3     C      0.20641900000000     0.03161000000000     0.54053000000000
C4     C      0.23703100000000     0.54593400000000     0.09653000000000
C4     C      0.76296900000000     0.45406600000000     0.59653000000000
C4     C      0.73703100000000     0.95406600000000     0.09653000000000
C4     C      0.26296900000000     0.04593400000000     0.59653000000000
H2     H      0.26533500000000     0.26560000000000     0.91207000000000
H2     H      0.73466500000000     0.73440000000000     0.41207000000000
H2     H      0.76533500000000     0.23440000000000     0.91207000000000
H2     H      0.23466500000000     0.76560000000000     0.41207000000000
H3     H      0.32869800000000     0.63678300000000     0.07399000000000
H3     H      0.67130200000000     0.36321700000000     0.57399000000000
H3     H      0.82869800000000     0.86321700000000     0.07399000000000
H3     H      0.17130200000000     0.13678300000000     0.57399000000000
C5     C      0.36578700000000     0.16662800000000     0.24478200000000
C5     C      0.63421300000000     0.83337200000000     0.74478200000000
C5     C      0.86578700000000     0.33337200000000     0.24478200000000
C5     C      0.13421300000000     0.66662800000000     0.74478200000000
C6     C      0.42773400000000     0.17315200000000     0.22469600000000
C6     C      0.57226600000000     0.82684800000000     0.72469600000000
C6     C      0.92773400000000     0.32684800000000     0.22469600000000
C6     C      0.07226600000000     0.67315200000000     0.72469600000000
C7     C      0.46390900000000     0.30802000000000     0.30706700000000
C7     C      0.53609100000000     0.69198000000000     0.80706700000000
C7     C      0.96390900000000     0.19198000000000     0.30706700000000
C7     C      0.03609100000000     0.80802000000000     0.80706700000000
C8     C      0.38650300000000     0.41619600000000     0.41562700000000
C8     C      0.61349700000000     0.58380400000000     0.91562700000000
C8     C      0.88650300000000     0.08380400000000     0.41562700000000
C8     C      0.11349700000000     0.91619600000000     0.91562700000000
C9     C      0.34537500000000     0.28822400000000     0.34023000000000
C9     C      0.65462500000000     0.71177600000000     0.84023000000000
C9     C      0.84537500000000     0.21177600000000     0.34023000000000
C9     C      0.15462500000000     0.78822400000000     0.84023000000000
C10    C      0.55042600000000     0.21027700000000     0.20229000000000
C10    C      0.44957400000000     0.78972300000000     0.70229000000000
C10    C      0.05042600000000     0.28972300000000     0.20229000000000
C10    C      0.94957400000000     0.71027700000000     0.70229000000000
C11    C      0.51639200000000     0.07618320000000     0.11965000000000
C11    C      0.48360800000000     0.92381680000000     0.61965000000000
C11    C      0.01639200000000     0.42381680000000     0.11965000000000
C11    C      0.98360800000000     0.57618320000000     0.61965000000000
C12    C      0.45536500000000     0.05773980000000     0.13080300000000
C12    C      0.54463500000000     0.94226020000000     0.63080300000000
C12    C      0.95536500000000     0.44226020000000     0.13080300000000
C12    C      0.04463500000000     0.55773980000000     0.63080300000000
H4     H      0.33848500000000     0.07599200000000     0.19064000000000
H4     H      0.66151500000000     0.92400800000000     0.69064000000000
H4     H      0.83848500000000     0.42400800000000     0.19064000000000
H4     H      0.16151500000000     0.57599200000000     0.69064000000000
H5     H      0.37234600000000     0.50403200000000     0.48437700000000
H5     H      0.62765400000000     0.49596800000000     0.98437700000000
H5     H      0.87234600000000     0.99596800000000     0.48437700000000
H5     H      0.12765400000000     0.00403200000000     0.98437700000000
H6     H      0.30281200000000     0.28806700000000     0.35715200000000
H6     H      0.69718800000000     0.71193300000000     0.85715200000000
H6     H      0.80281200000000     0.21193300000000     0.35715200000000
H6     H      0.19718800000000     0.78806700000000     0.85715200000000
H7     H      0.59385300000000     0.23002700000000     0.19910900000000
H7     H      0.40614700000000     0.76997300000000     0.69910900000000
H7     H      0.09385300000000     0.26997300000000     0.19910900000000
H7     H      0.90614700000000     0.73002700000000     0.69910900000000
H8     H      0.53630400000000     0.99707168000000     0.05490890000000
H8     H      0.46369600000000     0.00292832000000     0.55490890000000
H8     H      0.03630400000000     0.50292832000000     0.05490890000000
H8     H      0.96369600000000     0.49707168000000     0.55490890000000
H9     H      0.43079900000000     0.96360950000000     0.07306380000000
H9     H      0.56920100000000     0.03639050000000     0.57306380000000
H9     H      0.93079900000000     0.53639050000000     0.07306380000000
H9     H      0.06920100000000     0.46360950000000     0.57306380000000
N1     N      0.44455600000000     0.42695200000000     0.40016500000000
N1     N      0.55544400000000     0.57304800000000     0.90016500000000
N1     N      0.94455600000000     0.07304800000000     0.40016500000000
N1     N      0.05544400000000     0.92695200000000     0.90016500000000
N2     N      0.52414200000000     0.31915800000000     0.29096900000000
N2     N      0.47585800000000     0.68084200000000     0.79096900000000
N2     N      0.02414200000000     0.18084200000000     0.29096900000000
N2     N      0.97585800000000     0.81915800000000     0.79096900000000
H10    H      0.54593900000000     0.40801200000000     0.34603000000000
H10    H      0.45406100000000     0.59198800000000     0.84603000000000
H10    H      0.04593900000000     0.09198800000000     0.34603000000000
H10    H      0.95406100000000     0.90801200000000     0.84603000000000
