data_default
_cell_volume          1062.109481
_symmetry_space_group_name_H-M 'P 1'
_symmetry_Int_Tables_number 1
loop_
_symmetry_equiv_pos_site_id
_symmetry_equiv_pos_as_xyz
1 x,y,z
_cell_length_a        24.9479000000
_cell_length_b         3.9001000000
_cell_length_c        10.9159000000
_cell_angle_alpha        90.0000
_cell_angle_beta        90.0000
_cell_angle_gamma        90.0000
_cell_formula_units_Z 1
loop_
_atom_site_label
_atom_site_type_symbol
_atom_site_fract_x
_atom_site_fract_y
_atom_site_fract_z
C1     C      0.74393000000000     0.46372000000000     0.20320000000000
C1     C      0.25607000000000     0.53628000000000     0.70320000000000
C1     C      0.24393000000000     0.03628000000000     0.20320000000000
C1     C      0.75607000000000     0.96372000000000     0.70320000000000
O2     O      0.69007000000000     0.49228000000000     0.20902000000000
O2     O      0.30993000000000     0.50772000000000     0.70902000000000
O2     O      0.19007000000000     0.00772000000000     0.20902000000000
O2     O      0.80993000000000     0.99228000000000     0.70902000000000
O3     O      0.76641000000000     0.32697000000000     0.28947000000000
O3     O      0.23359000000000     0.67303000000000     0.78947000000000
O3     O      0.26641000000000     0.17303000000000     0.28947000000000
O3     O      0.73359000000000     0.82697000000000     0.78947000000000
C4     C      0.77370000000000     0.58967000000000     0.09543000000000
C4     C      0.22630000000000     0.41033000000000     0.59543000000000
C4     C      0.27370000000000     0.91033000000000     0.09543000000000
C4     C      0.72630000000000     0.08967000000000     0.59543000000000
C5     C      0.82845000000000     0.56630000000000     0.09088000000000
C5     C      0.17155000000000     0.43370000000000     0.59088000000000
C5     C      0.32845000000000     0.93370000000000     0.09088000000000
C5     C      0.67155000000000     0.06630000000000     0.59088000000000
H6     H      0.75087000000000     0.70455000000000     0.02100000000000
H6     H      0.24913000000000     0.29545000000000     0.52100000000000
H6     H      0.25087000000000     0.79545000000000     0.02100000000000
H6     H      0.74913000000000     0.20455000000000     0.52100000000000
H7     H      0.85034000000000     0.44778000000000     0.16562000000000
H7     H      0.14966000000000     0.55222000000000     0.66562000000000
H7     H      0.35034000000000     0.05222000000000     0.16562000000000
H7     H      0.64966000000000     0.94778000000000     0.66562000000000
C8     C      0.86067000000000     0.69789000000000     0.99136000000000
C8     C      0.13933000000000     0.30211000000000     0.49136000000000
C8     C      0.36067000000000     0.80211000000000     0.99136000000000
C8     C      0.63933000000000     0.19789000000000     0.49136000000000
O9     O      0.83841000000000     0.83435000000000     0.90251000000000
O9     O      0.16159000000000     0.16565000000000     0.40251000000000
O9     O      0.33841000000000     0.66565000000000     0.90251000000000
O9     O      0.66159000000000     0.33435000000000     0.40251000000000
O10    O      0.90948000000000     0.66656000000000     0.00791000000000
O10    O      0.09052000000000     0.33344000000000     0.50791000000000
O10    O      0.40948000000000     0.83344000000000     0.00791000000000
O10    O      0.59052000000000     0.16656000000000     0.50791000000000
H28    H      0.68126000000000     0.41310000000000     0.29307000000000
H28    H      0.31874000000000     0.58690000000000     0.79307000000000
H28    H      0.18126000000000     0.08690000000000     0.29307000000000
H28    H      0.81874000000000     0.91310000000000     0.79307000000000
H11    H      0.11782000000000     0.65864000000000     0.11658000000000
H11    H      0.88218000000000     0.34136000000000     0.61658000000000
H11    H      0.61782000000000     0.84136000000000     0.11658000000000
H11    H      0.38218000000000     0.15864000000000     0.61658000000000
C12    C      0.10534000000000     0.51523000000000     0.03512000000000
C12    C      0.89466000000000     0.48477000000000     0.53512000000000
C12    C      0.60534000000000     0.98477000000000     0.03512000000000
C12    C      0.39466000000000     0.01523000000000     0.53512000000000
C13    C      0.14198000000000     0.34675000000000     0.96074000000000
C13    C      0.85802000000000     0.65325000000000     0.46074000000000
C13    C      0.64198000000000     0.15325000000000     0.96074000000000
C13    C      0.35802000000000     0.84675000000000     0.46074000000000
C14    C      0.03700000000000     0.33749000000000     0.91528000000000
C14    C      0.96300000000000     0.66251000000000     0.41528000000000
C14    C      0.53700000000000     0.16251000000000     0.91528000000000
C14    C      0.46300000000000     0.83749000000000     0.41528000000000
C15    C      0.12447000000000     0.17042000000000     0.85894000000000
C15    C      0.87553000000000     0.82958000000000     0.35894000000000
C15    C      0.62447000000000     0.32958000000000     0.85894000000000
C15    C      0.37553000000000     0.67042000000000     0.35894000000000
H16    H      0.18485000000000     0.35866000000000     0.98321000000000
H16    H      0.81515000000000     0.64134000000000     0.48321000000000
H16    H      0.68485000000000     0.14134000000000     0.98321000000000
H16    H      0.31515000000000     0.85866000000000     0.48321000000000
C17    C      0.06916000000000     0.16699000000000     0.83265000000000
C17    C      0.93084000000000     0.83301000000000     0.33265000000000
C17    C      0.56916000000000     0.33301000000000     0.83265000000000
C17    C      0.43084000000000     0.66699000000000     0.33265000000000
H18    H      0.15346000000000     0.03747000000000     0.79985000000000
H18    H      0.84654000000000     0.96253000000000     0.29985000000000
H18    H      0.65346000000000     0.46253000000000     0.79985000000000
H18    H      0.34654000000000     0.53747000000000     0.29985000000000
C19    C      0.04596000000000     0.00243000000000     0.72919000000000
C19    C      0.95404000000000     0.99757000000000     0.22919000000000
C19    C      0.54596000000000     0.49757000000000     0.72919000000000
C19    C      0.45404000000000     0.50243000000000     0.22919000000000
C20    C      0.96061000000000     0.20380000000000     0.81643000000000
C20    C      0.03939000000000     0.79620000000000     0.31643000000000
C20    C      0.46061000000000     0.29620000000000     0.81643000000000
C20    C      0.53939000000000     0.70380000000000     0.31643000000000
C21    C      0.99061000000000     0.03460000000000     0.72997000000000
C21    C      0.00939000000000     0.96540000000000     0.22997000000000
C21    C      0.49061000000000     0.46540000000000     0.72997000000000
C21    C      0.50939000000000     0.53460000000000     0.22997000000000
H22    H      0.06820000000000     0.86716000000000     0.65738000000000
H22    H      0.93180000000000     0.13284000000000     0.15738000000000
H22    H      0.56820000000000     0.63284000000000     0.65738000000000
H22    H      0.43180000000000     0.36716000000000     0.15738000000000
H23    H      0.91651000000000     0.21572000000000     0.81008000000000
H23    H      0.08349000000000     0.78428000000000     0.31008000000000
H23    H      0.41651000000000     0.28428000000000     0.81008000000000
H23    H      0.58349000000000     0.71572000000000     0.31008000000000
H24    H      0.96787000000000     0.91995000000000     0.65405000000000
H24    H      0.03213000000000     0.08005000000000     0.15405000000000
H24    H      0.46787000000000     0.58005000000000     0.65405000000000
H24    H      0.53213000000000     0.41995000000000     0.15405000000000
N25    N      0.05212000000000     0.51417000000000     0.01288000000000
N25    N      0.94788000000000     0.48583000000000     0.51288000000000
N25    N      0.55212000000000     0.98583000000000     0.01288000000000
N25    N      0.44788000000000     0.01417000000000     0.51288000000000
N26    N      0.98308000000000     0.36556000000000     0.91139000000000
N26    N      0.01692000000000     0.63444000000000     0.41139000000000
N26    N      0.48308000000000     0.13444000000000     0.91139000000000
N26    N      0.51692000000000     0.86556000000000     0.41139000000000
H27    H      0.96297000000000     0.51148000000000     0.97196000000000
H27    H      0.03703000000000     0.48852000000000     0.47196000000000
H27    H      0.46297000000000     0.98852000000000     0.97196000000000
H27    H      0.53703000000000     0.01148000000000     0.47196000000000
