data_default
_cell_volume           571.644029
_symmetry_space_group_name_H-M 'P 1'
_symmetry_Int_Tables_number 1
loop_
_symmetry_equiv_pos_site_id
_symmetry_equiv_pos_as_xyz
1 x,y,z
_cell_length_a         8.9803000000
_cell_length_b         6.4382000000
_cell_length_c        12.2434000000
_cell_angle_alpha        87.6418
_cell_angle_beta        56.8739
_cell_angle_gamma       101.3430
_cell_formula_units_Z 1
loop_
_atom_site_label
_atom_site_type_symbol
_atom_site_fract_x
_atom_site_fract_y
_atom_site_fract_z
C1     C      0.68696000000000     0.47867200000000     0.67480400000000
C1     C      0.31304000000000     0.52132800000000     0.32519600000000
C2     C      0.76885000000000     0.33160800000000     0.59446100000000
C2     C      0.23115000000000     0.66839200000000     0.40553900000000
C3     C      0.81035100000000     0.35184100000000     0.46725200000000
C3     C      0.18964900000000     0.64815900000000     0.53274800000000
C4     C      0.80661100000000     0.55759400000000     0.28988000000000
C4     C      0.19338900000000     0.44240600000000     0.71012000000000
C5     C      0.75950300000000     0.72913800000000     0.25693500000000
C5     C      0.24049700000000     0.27086200000000     0.74306500000000
C6     C      0.67684000000000     0.86357800000000     0.35058900000000
C6     C      0.32316000000000     0.13642200000000     0.64941100000000
C7     C      0.68756100000000     0.66622500000000     0.50221500000000
C7     C      0.31243900000000     0.33377500000000     0.49778500000000
C8     C      0.77047800000000     0.52052200000000     0.41827900000000
C8     C      0.22952200000000     0.47947800000000     0.58172100000000
H1     H      0.59055400000000     0.74569500000000     0.68369600000000
H1     H      0.40944600000000     0.25430500000000     0.31630400000000
H2     H      0.65105800000000     0.47212100000000     0.77496100000000
H2     H      0.34894200000000     0.52787900000000     0.22503900000000
H3     H      0.79803500000000     0.20410900000000     0.63393400000000
H3     H      0.20196500000000     0.79589100000000     0.36606600000000
H4     H      0.87364700000000     0.23901500000000     0.40434500000000
H4     H      0.12635300000000     0.76098500000000     0.59565500000000
H5     H      0.86975100000000     0.45234600000000     0.22069000000000
H5     H      0.13024900000000     0.54765400000000     0.77931000000000
H6     H      0.78451800000000     0.76345400000000     0.16024700000000
H6     H      0.21548200000000     0.23654600000000     0.83975300000000
H7     H      0.63946800000000     0.99865600000000     0.32511700000000
H7     H      0.36053200000000     0.00134400000000     0.67488300000000
N1     N      0.65014100000000     0.63672000000000     0.62720900000000
N1     N      0.34985900000000     0.36328000000000     0.37279100000000
N2     N      0.64059300000000     0.83476100000000     0.47156900000000
N2     N      0.35940700000000     0.16523900000000     0.52843100000000
C9     C      0.36801000000000     0.74250200000000     0.90881600000000
C9     C      0.63199000000000     0.25749800000000     0.09118400000000
C10    C      0.26723600000000     0.82129800000000     0.04158000000000
C10    C      0.73276400000000     0.17870200000000     0.95842000000000
C11    C      0.16688200000000     0.11023000000000     0.17183000000000
C11    C      0.83311800000000     0.88977000000000     0.82817000000000
C12    C      0.26627400000000     0.02906000000000     0.04707000000000
C12    C      0.73372600000000     0.97094000000000     0.95293000000000
H8     H      0.23937600000000     0.37815000000000     0.06120000000000
H8     H      0.76062400000000     0.62185000000000     0.93880000000000
H9     H      0.19303000000000     0.70418800000000     0.13275000000000
H9     H      0.80697000000000     0.29581200000000     0.86725000000000
H10    H      0.34221800000000     0.13747000000000     0.95235500000000
H10    H      0.65778200000000     0.86253000000000     0.04764500000000
O1     O      0.16602800000000     0.32401000000000     0.15547000000000
O1     O      0.83397200000000     0.67599000000000     0.84453000000000
O2     O      0.34455900000000     0.54088800000000     0.92061800000000
O2     O      0.65544100000000     0.45911200000000     0.07938200000000
O3     O      0.45920100000000     0.88868400000000     0.80679300000000
O3     O      0.54079900000000     0.11131600000000     0.19320700000000
O4     O      0.08693520000000     0.01115000000000     0.28437000000000
O4     O      0.91306480000000     0.98885000000000     0.71563000000000
