data_default
_cell_volume           260.723067
_symmetry_space_group_name_H-M 'P 1'
_symmetry_Int_Tables_number 1
loop_
_symmetry_equiv_pos_site_id
_symmetry_equiv_pos_as_xyz
1 x,y,z
_cell_length_a         3.6950000000
_cell_length_b         6.6140000000
_cell_length_c        11.4780000000
_cell_angle_alpha        95.5730
_cell_angle_beta        96.9250
_cell_angle_gamma       108.8650
_cell_formula_units_Z 1
loop_
_atom_site_label
_atom_site_type_symbol
_atom_site_fract_x
_atom_site_fract_y
_atom_site_fract_z
N1     N      0.13960000000000     0.30140000000000     0.04580000000000
N2     N      0.14100000000000     0.11860000000000     0.86830000000000
C1     C      0.08010000000000     0.30480000000000     0.15310000000000
C2     C      0.95200000000000     0.12390000000000     0.20210000000000
C3     C      0.88360000000000     0.93200000000000     0.13700000000000
C4     C      0.88620000000000     0.74350000000000     0.95250000000000
C5     C      0.95120000000000     0.74410000000000     0.84000000000000
C6     C      0.07900000000000     0.93080000000000     0.79630000000000
C7     C      0.07560000000000     0.11930000000000     0.98270000000000
C8     C      0.94710000000000     0.92910000000000     0.02410000000000
H1     H      0.23230000000000     0.26290000000000     0.84710000000000
H2     H      0.13570000000000     0.46240000000000     0.20720000000000
H3     H      0.90340000000000     0.13330000000000     0.29530000000000
H4     H      0.77840000000000     0.78240000000000     0.17650000000000
H5     H      0.78130000000000     0.58680000000000     0.98550000000000
H6     H      0.89990000000000     0.59040000000000     0.78250000000000
H7     H      0.13370000000000     0.93430000000000     0.70400000000000
C1*    C      0.84940000000000     0.28560000000000     0.56010000000000
C2*    C      0.68610000000000     0.38520000000000     0.46750000000000
C3*    C      0.83800000000000     0.56970000000000     0.42550000000000
C4*    C      0.22650000000000     0.73950000000000     0.45800000000000
O2*    O      0.66640000000000     0.10160000000000     0.57420000000000
O3*    O      0.18420000000000     0.39240000000000     0.62490000000000
O4*    O      0.28540000000000     0.89510000000000     0.40210000000000
O1*    O      0.47360000000000     0.72240000000000     0.53910000000000
H1*    H      0.32340000000000     0.51830000000000     0.60170000000000
