data_default
_cell_volume           271.730040
_symmetry_space_group_name_H-M 'P 1'
_symmetry_Int_Tables_number 1
loop_
_symmetry_equiv_pos_site_id
_symmetry_equiv_pos_as_xyz
1 x,y,z
_cell_length_a         3.7494014947
_cell_length_b         6.3908035496
_cell_length_c        11.4447958858
_cell_angle_alpha        92.5442
_cell_angle_beta        83.4380
_cell_angle_gamma        87.0520
_cell_formula_units_Z 1
loop_
_atom_site_label
_atom_site_type_symbol
_atom_site_fract_x
_atom_site_fract_y
_atom_site_fract_z
C0_0   C      0.96130775219825     0.80369929442166     0.12783160629791
C1_0   C      0.08476544427148     0.69185406361518     0.22868405013536
O0_0   O      0.83827735037474     0.71186159783388     0.04527974056530
O1_0   O      0.98820305276580     0.01007789584134     0.13086747659342
C2_0   C      0.03675727484308     0.48738252392706     0.23993841280457
H0_0   H      0.21848041686289     0.78005521525028     0.29301289538148
H2_0   H      0.08553617576149     0.07071895880027     0.20726205783364
C3_0   C      0.17486743883141     0.36282713755544     0.33399240354946
H1_0   H      0.90537487993815     0.40209363411509     0.17375240358903
O2_0   O      0.25954958734094     0.45627762286648     0.42635360923820
O3_0   O      0.20771734459933     0.16345378222195     0.31462901669848
H2_1   H      0.72358746406100     0.96614478838749     0.92958527134836
C2_1   C      0.62802012771225     0.08885858072117     0.87532866450436
C0_1   C      0.49200551792208     0.28105925225769     0.92405002595665
C3_1   C      0.64082942695950     0.05164934730571     0.75196297523403
C1_1   C      0.36497656961272     0.43309896412563     0.85054590821078
H0_1   H      0.48029301937898     0.31847255495593     0.01799527199761
C4_1   C      0.50416402561921     0.21676557952840     0.68672728357692
C5_1   C      0.78115603941540     0.86276191730785     0.69069550790233
N0_1   N      0.36643762784254     0.40412584318498     0.73474130787937
H1_1   H      0.25242294915318     0.58398656606457     0.89043006031947
N1_1   N      0.50818524471520     0.18431037451473     0.56754661003474
C6_1   C      0.78027662173035     0.83901782625060     0.57031131039661
H3_1   H      0.89121360969655     0.73579445061342     0.73873352652750
C7_1   C      0.63714428600151     0.00466358706856     0.51101411823688
H6_1   H      0.39952276754740     0.30620908697782     0.51475452081672
H4_1   H      0.89029302609769     0.69615908341349     0.52074544155575
H5_1   H      0.61804183463548     0.99806951286502     0.41684732499497
