data_default
_cell_volume          1193.197374
_symmetry_space_group_name_H-M 'P 1'
_symmetry_Int_Tables_number 1
loop_
_symmetry_equiv_pos_site_id
_symmetry_equiv_pos_as_xyz
1 x,y,z
_cell_length_a         3.8462000000
_cell_length_b        23.6925000000
_cell_length_c        14.1485000000
_cell_angle_alpha        90.0000
_cell_angle_beta       112.2617
_cell_angle_gamma        90.0000
_cell_formula_units_Z 1
loop_
_atom_site_label
_atom_site_type_symbol
_atom_site_fract_x
_atom_site_fract_y
_atom_site_fract_z
N1     N      0.05646000000000     0.69666000000000     0.19278000000000
N1     N      0.55646000000000     0.19666000000000     0.19278000000000
N1     N      0.05646000000000     0.30334000000000     0.69278000000000
N1     N      0.55646000000000     0.80334000000000     0.69278000000000
H1     H      0.04025000000000     0.67712000000000     0.25043000000000
H1     H      0.54025000000000     0.17712000000000     0.25043000000000
H1     H      0.04025000000000     0.32288000000000     0.75043000000000
H1     H      0.54025000000000     0.82288000000000     0.75043000000000
C1     C      0.09096000000000     0.75699000000000     0.02849000000000
C1     C      0.59096000000000     0.25699000000000     0.02849000000000
C1     C      0.09096000000000     0.24301000000000     0.52849000000000
C1     C      0.59096000000000     0.74301000000000     0.52849000000000
H3     H      0.10246000000000     0.77873000000000     0.96689000000000
H3     H      0.60246000000000     0.27873000000000     0.96689000000000
H3     H      0.10246000000000     0.22127000000000     0.46689000000000
H3     H      0.60246000000000     0.72127000000000     0.46689000000000
C2     C      0.05077000000000     0.78543000000000     0.11132000000000
C2     C      0.55077000000000     0.28543000000000     0.11132000000000
C2     C      0.05077000000000     0.21457000000000     0.61132000000000
C2     C      0.55077000000000     0.71457000000000     0.61132000000000
C3     C      0.99174000000000     0.77783000000000     0.27445000000000
C3     C      0.49174000000000     0.27783000000000     0.27445000000000
C3     C      0.99174000000000     0.22217000000000     0.77445000000000
C3     C      0.49174000000000     0.72217000000000     0.77445000000000
C4     C      0.09647000000000     0.66780000000000     0.11486000000000
C4     C      0.59647000000000     0.16780000000000     0.11486000000000
C4     C      0.09647000000000     0.33220000000000     0.61486000000000
C4     C      0.59647000000000     0.83220000000000     0.61486000000000
H5     H      0.11147000000000     0.62463000000000     0.11672000000000
H5     H      0.61147000000000     0.12463000000000     0.11672000000000
H5     H      0.11147000000000     0.37537000000000     0.61672000000000
H5     H      0.61147000000000     0.87537000000000     0.61672000000000
C6     C      0.03433000000000     0.75311000000000     0.19366000000000
C6     C      0.53433000000000     0.25311000000000     0.19366000000000
C6     C      0.03433000000000     0.24689000000000     0.69366000000000
C6     C      0.53433000000000     0.74689000000000     0.69366000000000
C7     C      0.96639000000000     0.83454000000000     0.28101000000000
C7     C      0.46639000000000     0.33454000000000     0.28101000000000
C7     C      0.96639000000000     0.16546000000000     0.78101000000000
C7     C      0.46639000000000     0.66546000000000     0.78101000000000
H6     H      0.93423000000000     0.85200000000000     0.34321000000000
H6     H      0.43423000000000     0.35200000000000     0.34321000000000
H6     H      0.93423000000000     0.14800000000000     0.84321000000000
H6     H      0.43423000000000     0.64800000000000     0.84321000000000
C8     C      0.02514000000000     0.84442000000000     0.11663000000000
C8     C      0.52514000000000     0.34442000000000     0.11663000000000
C8     C      0.02514000000000     0.15558000000000     0.61663000000000
C8     C      0.52514000000000     0.65558000000000     0.61663000000000
H7     H      0.03681000000000     0.86938000000000     0.05901000000000
H7     H      0.53681000000000     0.36938000000000     0.05901000000000
H7     H      0.03681000000000     0.13062000000000     0.55901000000000
H7     H      0.53681000000000     0.63062000000000     0.55901000000000
C9     C      0.11603000000000     0.69775000000000     0.03124000000000
C9     C      0.61603000000000     0.19775000000000     0.03124000000000
C9     C      0.11603000000000     0.30225000000000     0.53124000000000
C9     C      0.61603000000000     0.80225000000000     0.53124000000000
H8     H      0.14850000000000     0.67633000000000     0.97251000000000
H8     H      0.64850000000000     0.17633000000000     0.97251000000000
H8     H      0.14850000000000     0.32367000000000     0.47251000000000
H8     H      0.64850000000000     0.82367000000000     0.47251000000000
C13    C      0.98380000000000     0.86899000000000     0.20216000000000
C13    C      0.48380000000000     0.36899000000000     0.20216000000000
C13    C      0.98380000000000     0.13101000000000     0.70216000000000
C13    C      0.48380000000000     0.63101000000000     0.70216000000000
H11    H      0.96550000000000     0.91183000000000     0.20709000000000
H11    H      0.46550000000000     0.41183000000000     0.20709000000000
H11    H      0.96550000000000     0.08817000000000     0.70709000000000
H11    H      0.46550000000000     0.58817000000000     0.70709000000000
O1     O      0.43021000000000     0.42863000000000     0.48061000000000
O1     O      0.93021000000000     0.92863000000000     0.48061000000000
O1     O      0.43021000000000     0.57137000000000     0.98061000000000
O1     O      0.93021000000000     0.07137000000000     0.98061000000000
O2     O      0.70105000000000     0.57613000000000     0.25475000000000
O2     O      0.20105000000000     0.07613000000000     0.25475000000000
O2     O      0.70105000000000     0.42387000000000     0.75475000000000
O2     O      0.20105000000000     0.92387000000000     0.75475000000000
O3     O      0.00017000000000     0.63758000000000     0.36586000000000
O3     O      0.50017000000000     0.13758000000000     0.36586000000000
O3     O      0.00017000000000     0.36242000000000     0.86586000000000
O3     O      0.50017000000000     0.86242000000000     0.86586000000000
O4     O      0.75047000000000     0.49270000000000     0.59164000000000
O4     O      0.25047000000000     0.99270000000000     0.59164000000000
O4     O      0.75047000000000     0.50730000000000     0.09164000000000
O4     O      0.25047000000000     0.00730000000000     0.09164000000000
H2     H      0.71955000000000     0.46741000000000     0.64241000000000
H2     H      0.21955000000000     0.96741000000000     0.64241000000000
H2     H      0.71955000000000     0.53259000000000     0.14241000000000
H2     H      0.21955000000000     0.03259000000000     0.14241000000000
C5     C      0.83061000000000     0.59146000000000     0.34606000000000
C5     C      0.33061000000000     0.09146000000000     0.34606000000000
C5     C      0.83061000000000     0.40854000000000     0.84606000000000
C5     C      0.33061000000000     0.90854000000000     0.84606000000000
C10    C      0.80344000000000     0.55872000000000     0.42505000000000
C10    C      0.30344000000000     0.05872000000000     0.42505000000000
C10    C      0.80344000000000     0.44128000000000     0.92505000000000
C10    C      0.30344000000000     0.94128000000000     0.92505000000000
H9     H      0.92949000000000     0.57503000000000     0.49653000000000
H9     H      0.42949000000000     0.07503000000000     0.49653000000000
H9     H      0.92949000000000     0.42497000000000     0.99653000000000
H9     H      0.42949000000000     0.92497000000000     0.99653000000000
C11    C      0.59852000000000     0.47474000000000     0.49466000000000
C11    C      0.09852000000000     0.97474000000000     0.49466000000000
C11    C      0.59852000000000     0.52526000000000     0.99466000000000
C11    C      0.09852000000000     0.02526000000000     0.99466000000000
C12    C      0.62020000000000     0.50605000000000     0.41315000000000
C12    C      0.12020000000000     0.00605000000000     0.41315000000000
C12    C      0.62020000000000     0.49395000000000     0.91315000000000
C12    C      0.12020000000000     0.99395000000000     0.91315000000000
H10    H      0.49309000000000     0.48935000000000     0.34166000000000
H10    H      0.99309000000000     0.98935000000000     0.34166000000000
H10    H      0.49309000000000     0.51065000000000     0.84166000000000
H10    H      0.99309000000000     0.01065000000000     0.84166000000000
