data_default
_cell_volume           855.651058
_symmetry_space_group_name_H-M 'P 1'
_symmetry_Int_Tables_number 1
loop_
_symmetry_equiv_pos_site_id
_symmetry_equiv_pos_as_xyz
1 x,y,z
_cell_length_a         5.8237000000
_cell_length_b        12.5757000000
_cell_length_c        11.6833000000
_cell_angle_alpha        90.0000
_cell_angle_beta        90.0000
_cell_angle_gamma        90.0000
_cell_formula_units_Z 1
loop_
_atom_site_label
_atom_site_type_symbol
_atom_site_fract_x
_atom_site_fract_y
_atom_site_fract_z
Cl1    Cl     0.67830700000000     0.65153100000000     0.20078200000000
Cl1    Cl     0.82169300000000     0.34846900000000     0.70078200000000
Cl1    Cl     0.32169300000000     0.15153100000000     0.29921800000000
Cl1    Cl     0.17830700000000     0.84846900000000     0.79921800000000
Cl2    Cl     0.63550400000000     0.39661900000000     0.21884600000000
Cl2    Cl     0.86449600000000     0.60338100000000     0.71884600000000
Cl2    Cl     0.36449600000000     0.89661900000000     0.28115400000000
Cl2    Cl     0.13550400000000     0.10338100000000     0.78115400000000
C1     C      0.15456000000000     0.46382300000000     0.43055100000000
C1     C      0.34544000000000     0.53617700000000     0.93055100000000
C1     C      0.84544000000000     0.96382300000000     0.06944900000000
C1     C      0.65456000000000     0.03617700000000     0.56944900000000
C2     C      0.17067000000000     0.57449300000000     0.42424000000000
C2     C      0.32933000000000     0.42550700000000     0.92424000000000
C2     C      0.82933000000000     0.07449300000000     0.07576000000000
C2     C      0.67067000000000     0.92550700000000     0.57576000000000
C3     C      0.02423000000000     0.63102400000000     0.35300300000000
C3     C      0.47577000000000     0.36897600000000     0.85300300000000
C3     C      0.97577000000000     0.13102400000000     0.14699700000000
C3     C      0.52423000000000     0.86897600000000     0.64699700000000
C4     C      0.85834000000000     0.57771400000000     0.28843100000000
C4     C      0.64166000000000     0.42228600000000     0.78843100000000
C4     C      0.14166000000000     0.07771400000000     0.21156900000000
C4     C      0.35834000000000     0.92228600000000     0.71156900000000
C5     C      0.83943500000000     0.46669400000000     0.29648200000000
C5     C      0.66056500000000     0.53330600000000     0.79648200000000
C5     C      0.16056500000000     0.96669400000000     0.20351800000000
C5     C      0.33943500000000     0.03330600000000     0.70351800000000
C6     C      0.98890800000000     0.41037800000000     0.36754900000000
C6     C      0.51109200000000     0.58962200000000     0.86754900000000
C6     C      0.01109200000000     0.91037800000000     0.13245100000000
C6     C      0.48890800000000     0.08962200000000     0.63245100000000
N1     N      0.31352000000000     0.40251700000000     0.50043900000000
N1     N      0.18648000000000     0.59748300000000     0.00043900000000
N1     N      0.68648000000000     0.90251700000000     0.99956100000000
N1     N      0.81352000000000     0.09748300000000     0.49956100000000
N2     N      0.33141000000000     0.63462300000000     0.49406400000000
N2     N      0.16859000000000     0.36537700000000     0.99406400000000
N2     N      0.66859000000000     0.13462300000000     0.00593600000000
N2     N      0.83141000000000     0.86537700000000     0.50593600000000
O1     O      0.24053000000000     0.32177700000000     0.54693500000000
O1     O      0.25947000000000     0.67822300000000     0.04693500000000
O1     O      0.75947000000000     0.82177700000000     0.95306500000000
O1     O      0.74053000000000     0.17822300000000     0.45306500000000
O2     O      0.51078000000000     0.43592200000000     0.50404600000000
O2     O      0.98922000000000     0.56407800000000     0.00404600000000
O2     O      0.48922000000000     0.93592200000000     0.99595400000000
O2     O      0.01078000000000     0.06407800000000     0.49595400000000
O3     O      0.32151000000000     0.62029400000000     0.59764000000000
O3     O      0.17849000000000     0.37970600000000     0.09764000000000
O3     O      0.67849000000000     0.12029400000000     0.90236000000000
O3     O      0.82151000000000     0.87970600000000     0.40236000000000
O4     O      0.45852000000000     0.69695200000000     0.44388800000000
O4     O      0.04148000000000     0.30304800000000     0.94388800000000
O4     O      0.54148000000000     0.19695200000000     0.05611200000000
O4     O      0.95852000000000     0.80304800000000     0.55611200000000
H1     H      0.03880000000000     0.71679000000000     0.34886200000000
H1     H      0.46120000000000     0.28321000000000     0.84886200000000
H1     H      0.96120000000000     0.21679000000000     0.15113800000000
H1     H      0.53880000000000     0.78321000000000     0.65113800000000
H2     H      0.97833000000000     0.32458400000000     0.37356800000000
H2     H      0.52167000000000     0.67541600000000     0.87356800000000
H2     H      0.02167000000000     0.82458400000000     0.12643200000000
H2     H      0.47833000000000     0.17541600000000     0.62643200000000
