data_default
_cell_volume           420.028749
_symmetry_space_group_name_H-M 'P 1'
_symmetry_Int_Tables_number 1
loop_
_symmetry_equiv_pos_site_id
_symmetry_equiv_pos_as_xyz
1 x,y,z
_cell_length_a         6.3660000000
_cell_length_b         7.4480000000
_cell_length_c         9.8380000000
_cell_angle_alpha        90.0000
_cell_angle_beta       115.7810
_cell_angle_gamma        90.0000
_cell_formula_units_Z 1
loop_
_atom_site_label
_atom_site_type_symbol
_atom_site_fract_x
_atom_site_fract_y
_atom_site_fract_z
C1     C      0.00080000000000     0.18280000000000     0.06920000000000
C1     C      0.99920000000000     0.68280000000000     0.93080000000000
C2     C      0.01000000000000     0.21410000000000     0.21100000000000
C2     C      0.99000000000000     0.71410000000000     0.78900000000000
C3     C      0.79670000000000     0.21880000000000     0.93950000000000
C3     C      0.20330000000000     0.71880000000000     0.06050000000000
C4     C      0.60100000000000     0.28720000000000     0.95300000000000
C4     C      0.39900000000000     0.78720000000000     0.04700000000000
C5     C      0.81450000000000     0.27990000000000     0.22450000000000
C5     C      0.18550000000000     0.77990000000000     0.77550000000000
C6     C      0.61130000000000     0.31710000000000     0.09600000000000
C6     C      0.38870000000000     0.81710000000000     0.90400000000000
N1     N      0.80560000000000     0.29920000000000     0.37230000000000
N1     N      0.19440000000000     0.79920000000000     0.62770000000000
N2     N      0.23920000000000     0.18870000000000     0.34320000000000
N2     N      0.76080000000000     0.68870000000000     0.65680000000000
O1     O      0.89560000000000     0.17870000000000     0.46450000000000
O1     O      0.10440000000000     0.67870000000000     0.53550000000000
O2     O      0.70040000000000     0.43050000000000     0.38780000000000
O2     O      0.29960000000000     0.93050000000000     0.61220000000000
O3     O      0.30180000000000     0.30690000000000     0.44110000000000
O3     O      0.69820000000000     0.80690000000000     0.55890000000000
O4     O      0.35110000000000     0.05540000000000     0.34020000000000
O4     O      0.64890000000000     0.55540000000000     0.65980000000000
CL1    Cl     0.79140000000000     0.17960000000000     0.76410000000000
CL1    Cl     0.20860000000000     0.67960000000000     0.23590000000000
CL2    Cl     0.34460000000000     0.33370000000000     0.79510000000000
CL2    Cl     0.65540000000000     0.83370000000000     0.20490000000000
H5     H      0.46040000000000     0.36830000000000     0.10810000000000
H5     H      0.53960000000000     0.86830000000000     0.89190000000000
H6     H      0.15390000000000     0.13150000000000     0.06000000000000
H6     H      0.84610000000000     0.63150000000000     0.94000000000000
