data_default
_cell_volume           842.983921
_symmetry_space_group_name_H-M 'P 1'
_symmetry_Int_Tables_number 1
loop_
_symmetry_equiv_pos_site_id
_symmetry_equiv_pos_as_xyz
1 x,y,z
_cell_length_a        12.1100000000
_cell_length_b         8.9089000000
_cell_length_c         8.1760000000
_cell_angle_alpha        90.0000
_cell_angle_beta       107.1230
_cell_angle_gamma        90.0000
_cell_formula_units_Z 1
loop_
_atom_site_label
_atom_site_type_symbol
_atom_site_fract_x
_atom_site_fract_y
_atom_site_fract_z
Cl1    Cl     0.13365000000000     0.27264000000000     0.22751000000000
Cl1    Cl     0.86635000000000     0.77264000000000     0.27249000000000
Cl1    Cl     0.86635000000000     0.72736000000000     0.77249000000000
Cl1    Cl     0.13365000000000     0.22736000000000     0.72751000000000
Cl2    Cl     0.37056000000000     0.27509000000000     0.53361000000000
Cl2    Cl     0.62944000000000     0.77509000000000     0.96639000000000
Cl2    Cl     0.62944000000000     0.72491000000000     0.46639000000000
Cl2    Cl     0.37056000000000     0.22491000000000     0.03361000000000
O1     O      0.13129000000000     0.94240000000000     0.36023000000000
O1     O      0.86871000000000     0.44240000000000     0.13977000000000
O1     O      0.86871000000000     0.05760000000000     0.63977000000000
O1     O      0.13129000000000     0.55760000000000     0.86023000000000
O2     O      0.41286000000000     0.85667000000000     0.66458000000000
O2     O      0.58714000000000     0.35667000000000     0.83542000000000
O2     O      0.58714000000000     0.14333000000000     0.33542000000000
O2     O      0.41286000000000     0.64333000000000     0.16458000000000
O3     O      0.36374000000000     0.94519000000000     0.39938000000000
O3     O      0.63626000000000     0.44519000000000     0.10062000000000
O3     O      0.63626000000000     0.05481000000000     0.60062000000000
O3     O      0.36374000000000     0.55481000000000     0.89938000000000
O4     O      0.08339000000000     0.85348000000000     0.09523000000000
O4     O      0.91661000000000     0.35348000000000     0.40477000000000
O4     O      0.91661000000000     0.14652000000000     0.90477000000000
O4     O      0.08339000000000     0.64652000000000     0.59523000000000
N1     N      0.13348000000000     0.84647000000000     0.25114000000000
N1     N      0.86652000000000     0.34647000000000     0.24886000000000
N1     N      0.86652000000000     0.15353000000000     0.74886000000000
N1     N      0.13348000000000     0.65353000000000     0.75114000000000
N2     N      0.36287000000000     0.84890000000000     0.50869000000000
N2     N      0.63713000000000     0.34890000000000     0.99131000000000
N2     N      0.63713000000000     0.15110000000000     0.49131000000000
N2     N      0.36287000000000     0.65110000000000     0.00869000000000
C7     C      0.30073000000000     0.70966000000000     0.44654000000000
C7     C      0.69927000000000     0.20966000000000     0.05346000000000
C7     C      0.69927000000000     0.29034000000000     0.55346000000000
C7     C      0.30073000000000     0.79034000000000     0.94654000000000
C8     C      0.19752000000000     0.70860000000000     0.31360000000000
C8     C      0.80248000000000     0.20860000000000     0.18640000000000
C8     C      0.80248000000000     0.29140000000000     0.68640000000000
C8     C      0.19752000000000     0.79140000000000     0.81360000000000
C9     C      0.14624000000000     0.57343000000000     0.24789000000000
C9     C      0.85376000000000     0.07343000000000     0.25211000000000
C9     C      0.85376000000000     0.42657000000000     0.75211000000000
C9     C      0.14624000000000     0.92657000000000     0.74789000000000
C10    C      0.19925000000000     0.43805000000000     0.31271000000000
C10    C      0.80075000000000     0.93805000000000     0.18729000000000
C10    C      0.80075000000000     0.56195000000000     0.68729000000000
C10    C      0.19925000000000     0.06195000000000     0.81271000000000
C11    C      0.30271000000000     0.43911000000000     0.44804000000000
C11    C      0.69729000000000     0.93911000000000     0.05196000000000
C11    C      0.69729000000000     0.56089000000000     0.55196000000000
C11    C      0.30271000000000     0.06089000000000     0.94804000000000
C12    C      0.35385000000000     0.57558000000000     0.51256000000000
C12    C      0.64615000000000     0.07558000000000     0.98744000000000
C12    C      0.64615000000000     0.42442000000000     0.48744000000000
C12    C      0.35385000000000     0.92442000000000     0.01256000000000
H1     H      0.06589000000000     0.57445000000000     0.14547000000000
H1     H      0.93411000000000     0.07445000000000     0.35453000000000
H1     H      0.93411000000000     0.42555000000000     0.85453000000000
H1     H      0.06589000000000     0.92555000000000     0.64547000000000
H2     H      0.43418000000000     0.57826000000000     0.61497000000000
H2     H      0.56582000000000     0.07826000000000     0.88503000000000
H2     H      0.56582000000000     0.42174000000000     0.38503000000000
H2     H      0.43418000000000     0.92174000000000     0.11497000000000
