data_default
_cell_volume           793.067749
_symmetry_space_group_name_H-M 'P 1'
_symmetry_Int_Tables_number 1
loop_
_symmetry_equiv_pos_site_id
_symmetry_equiv_pos_as_xyz
1 x,y,z
_cell_length_a        11.5296000000
_cell_length_b         8.7747000000
_cell_length_c         7.8651000000
_cell_angle_alpha        90.0000
_cell_angle_beta        94.6640
_cell_angle_gamma        90.0000
_cell_formula_units_Z 1
loop_
_atom_site_label
_atom_site_type_symbol
_atom_site_fract_x
_atom_site_fract_y
_atom_site_fract_z
Cl1    Cl     0.87965000000000     0.50976000000000     0.83493000000000
Cl1    Cl     0.37965000000000     0.00976000000000     0.83493000000000
Cl1    Cl     0.12035000000000     0.50976000000000     0.66507000000000
Cl1    Cl     0.62035000000000     0.00976000000000     0.66507000000000
Cl1    Cl     0.12035000000000     0.49024000000000     0.16507000000000
Cl1    Cl     0.62035000000000     0.99024000000000     0.16507000000000
Cl1    Cl     0.87965000000000     0.49024000000000     0.33493000000000
Cl1    Cl     0.37965000000000     0.99024000000000     0.33493000000000
O10    O      0.83648000000000     0.91873000000000     0.94823000000000
O10    O      0.33648000000000     0.41873000000000     0.94823000000000
O10    O      0.16352000000000     0.91873000000000     0.55177000000000
O10    O      0.66352000000000     0.41873000000000     0.55177000000000
O10    O      0.16352000000000     0.08127000000000     0.05177000000000
O10    O      0.66352000000000     0.58127000000000     0.05177000000000
O10    O      0.83648000000000     0.08127000000000     0.44823000000000
O10    O      0.33648000000000     0.58127000000000     0.44823000000000
O11    O      0.88169000000000     0.83322000000000     0.69985000000000
O11    O      0.38169000000000     0.33322000000000     0.69985000000000
O11    O      0.11831000000000     0.83322000000000     0.80015000000000
O11    O      0.61831000000000     0.33322000000000     0.80015000000000
O11    O      0.11831000000000     0.16678000000000     0.30015000000000
O11    O      0.61831000000000     0.66678000000000     0.30015000000000
O11    O      0.88169000000000     0.16678000000000     0.19985000000000
O11    O      0.38169000000000     0.66678000000000     0.19985000000000
N8     N      0.88432000000000     0.92814000000000     0.81479000000000
N8     N      0.38432000000000     0.42814000000000     0.81479000000000
N8     N      0.11568000000000     0.92814000000000     0.68521000000000
N8     N      0.61568000000000     0.42814000000000     0.68521000000000
N8     N      0.11568000000000     0.07186000000000     0.18521000000000
N8     N      0.61568000000000     0.57186000000000     0.18521000000000
N8     N      0.88432000000000     0.07186000000000     0.31479000000000
N8     N      0.38432000000000     0.57186000000000     0.31479000000000
C2     C      0.94720000000000     0.06903000000000     0.78659000000000
C2     C      0.44720000000000     0.56903000000000     0.78659000000000
C2     C      0.05280000000000     0.06903000000000     0.71341000000000
C2     C      0.55280000000000     0.56903000000000     0.71341000000000
C2     C      0.05280000000000     0.93097000000000     0.21341000000000
C2     C      0.55280000000000     0.43097000000000     0.21341000000000
C2     C      0.94720000000000     0.93097000000000     0.28659000000000
C2     C      0.44720000000000     0.43097000000000     0.28659000000000
C4     C      0.89441000000000     0.20516000000000     0.82440000000000
C4     C      0.39441000000000     0.70516000000000     0.82440000000000
C4     C      0.10559000000000     0.20516000000000     0.67560000000000
C4     C      0.60559000000000     0.70516000000000     0.67560000000000
C4     C      0.10559000000000     0.79484000000000     0.17560000000000
C4     C      0.60559000000000     0.29484000000000     0.17560000000000
C4     C      0.89441000000000     0.79484000000000     0.32440000000000
C4     C      0.39441000000000     0.29484000000000     0.32440000000000
H14    H      0.81197000000000     0.20355000000000     0.88060000000000
H14    H      0.31197000000000     0.70355000000000     0.88060000000000
H14    H      0.18803000000000     0.20355000000000     0.61940000000000
H14    H      0.68803000000000     0.70355000000000     0.61940000000000
H14    H      0.18803000000000     0.79645000000000     0.11940000000000
H14    H      0.68803000000000     0.29645000000000     0.11940000000000
H14    H      0.81197000000000     0.79645000000000     0.38060000000000
H14    H      0.31197000000000     0.29645000000000     0.38060000000000
C5     C      0.94701000000000     0.34276000000000     0.78785000000000
C5     C      0.44701000000000     0.84276000000000     0.78785000000000
C5     C      0.05299000000000     0.34276000000000     0.71215000000000
C5     C      0.55299000000000     0.84276000000000     0.71215000000000
C5     C      0.05299000000000     0.65724000000000     0.21215000000000
C5     C      0.55299000000000     0.15724000000000     0.21215000000000
C5     C      0.94701000000000     0.65724000000000     0.28785000000000
C5     C      0.44701000000000     0.15724000000000     0.28785000000000
