data_default
_cell_volume           420.294210
_symmetry_space_group_name_H-M 'P 1'
_symmetry_Int_Tables_number 1
loop_
_symmetry_equiv_pos_site_id
_symmetry_equiv_pos_as_xyz
1 x,y,z
_cell_length_a         7.3021000000
_cell_length_b         8.1366000000
_cell_length_c         7.3065000000
_cell_angle_alpha        90.7717
_cell_angle_beta        75.5335
_cell_angle_gamma        90.6463
_cell_formula_units_Z 1
loop_
_atom_site_label
_atom_site_type_symbol
_atom_site_fract_x
_atom_site_fract_y
_atom_site_fract_z
C1     C      0.74299300000000     0.66357700000000     0.54770700000000
C1     C      0.25700700000000     0.33642300000000     0.45229300000000
C2     C      0.92830500000000     0.70760600000000     0.46645300000000
C2     C      0.07169500000000     0.29239400000000     0.53354700000000
C3     C      0.03361000000000     0.79252800000000     0.57161800000000
C3     C      0.96639000000000     0.20747200000000     0.42838200000000
C4     C      0.95254500000000     0.83654500000000     0.75702700000000
C4     C      0.04745500000000     0.16345500000000     0.24297300000000
C5     C      0.76561000000000     0.79382700000000     0.83991500000000
C5     C      0.23439000000000     0.20617300000000     0.16008500000000
C6     C      0.66035000000000     0.70625500000000     0.73478200000000
C6     C      0.33965000000000     0.29374500000000     0.26521800000000
N1     N      0.00331000000000     0.66940800000000     0.26447400000000
N1     N      0.99669000000000     0.33059200000000     0.73552600000000
N2     N      0.23562000000000     0.83058000000000     0.49655100000000
N2     N      0.76438000000000     0.16942000000000     0.50344900000000
O1     O      0.96479300000000     0.53513000000000     0.21061900000000
O1     O      0.03520700000000     0.46487000000000     0.78938100000000
O2     O      0.09229000000000     0.77731200000000     0.16828200000000
O2     O      0.90771000000000     0.22268800000000     0.83171800000000
O3     O      0.33245000000000     0.72183700000000     0.40934400000000
O3     O      0.66755000000000     0.27816300000000     0.59065600000000
O4     O      0.28915000000000     0.96499600000000     0.53490300000000
O4     O      0.71085000000000     0.03500400000000     0.46509700000000
H1     H      0.66259800000000     0.59677000000000     0.46437500000000
H1     H      0.33740200000000     0.40323000000000     0.53562500000000
H2     H      0.03595000000000     0.90336100000000     0.83732200000000
H2     H      0.96405000000000     0.09663900000000     0.16267800000000
CL1    Cl     0.42926200000000     0.65061400000000     0.83147400000000
CL1    Cl     0.57073800000000     0.34938600000000     0.16852600000000
CL2    Cl     0.66929600000000     0.84947600000000     0.07117000000000
CL2    Cl     0.33070400000000     0.15052400000000     0.92883000000000
