data_default
_cell_volume           836.522852
_symmetry_space_group_name_H-M 'P 1'
_symmetry_Int_Tables_number 1
loop_
_symmetry_equiv_pos_site_id
_symmetry_equiv_pos_as_xyz
1 x,y,z
_cell_length_a        12.3222000000
_cell_length_b         8.7904000000
_cell_length_c         8.2270000000
_cell_angle_alpha        90.0000
_cell_angle_beta        69.8389
_cell_angle_gamma        90.0000
_cell_formula_units_Z 1
loop_
_atom_site_label
_atom_site_type_symbol
_atom_site_fract_x
_atom_site_fract_y
_atom_site_fract_z
Cl1    Cl     0.11649500000000     0.71274400000000     0.29462700000000
Cl1    Cl     0.88350500000000     0.21274400000000     0.20537300000000
Cl1    Cl     0.88350500000000     0.28725600000000     0.70537300000000
Cl1    Cl     0.11649500000000     0.78725600000000     0.79462700000000
Cl2    Cl     0.36120000000000     0.72778400000000     0.98166680000000
Cl2    Cl     0.63880000000000     0.22778400000000     0.51833320000000
Cl2    Cl     0.63880000000000     0.27221600000000     0.01833320000000
Cl2    Cl     0.36120000000000     0.77221600000000     0.48166680000000
C1     C      0.30384800000000     0.28129900000000     0.05471290000000
C1     C      0.69615200000000     0.78129900000000     0.44528710000000
C1     C      0.69615200000000     0.71870100000000     0.94528710000000
C1     C      0.30384800000000     0.21870100000000     0.55471290000000
C2     C      0.19679900000000     0.27478900000000     0.18837400000000
C2     C      0.80320100000000     0.77478900000000     0.31162600000000
C2     C      0.80320100000000     0.72521100000000     0.81162600000000
C2     C      0.19679900000000     0.22521100000000     0.68837400000000
C3     C      0.14061600000000     0.40794000000000     0.26126200000000
C3     C      0.85938400000000     0.90794000000000     0.23873800000000
C3     C      0.85938400000000     0.59206000000000     0.73873800000000
C3     C      0.14061600000000     0.09206000000000     0.76126200000000
C4     C      0.18993000000000     0.54904400000000     0.20009900000000
C4     C      0.81007000000000     0.04904400000000     0.29990100000000
C4     C      0.81007000000000     0.45095600000000     0.79990100000000
C4     C      0.18993000000000     0.95095600000000     0.70009900000000
C5     C      0.29644800000000     0.55560000000000     0.06356920000000
C5     C      0.70355200000000     0.05560000000000     0.43643080000000
C5     C      0.70355200000000     0.44440000000000     0.93643080000000
C5     C      0.29644800000000     0.94440000000000     0.56356920000000
C6     C      0.35296200000000     0.42095100000000     0.99207294000000
C6     C      0.64703800000000     0.92095100000000     0.50792706000000
C6     C      0.64703800000000     0.57904900000000     0.00792706000000
C6     C      0.35296200000000     0.07904900000000     0.49207294000000
N1     N      0.36786900000000     0.14306800000000     0.98579900000000
N1     N      0.63213100000000     0.64306800000000     0.51420100000000
N1     N      0.63213100000000     0.85693200000000     0.01420100000000
N1     N      0.36786900000000     0.35693200000000     0.48579900000000
N2     N      0.14051000000000     0.12988200000000     0.24845800000000
N2     N      0.85949000000000     0.62988200000000     0.25154200000000
N2     N      0.85949000000000     0.87011800000000     0.75154200000000
N2     N      0.14051000000000     0.37011800000000     0.74845800000000
O1     O      0.40852900000000     0.12956500000000     0.82785900000000
O1     O      0.59147100000000     0.62956500000000     0.67214100000000
O1     O      0.59147100000000     0.87043500000000     0.17214100000000
O1     O      0.40852900000000     0.37043500000000     0.32785900000000
O2     O      0.37554100000000     0.05080550000000     0.09288250000000
O2     O      0.62445900000000     0.55080550000000     0.40711750000000
O2     O      0.62445900000000     0.94919450000000     0.90711750000000
O2     O      0.37554100000000     0.44919450000000     0.59288250000000
O3     O      0.13941600000000     0.03939270000000     0.13574800000000
O3     O      0.86058400000000     0.53939270000000     0.36425200000000
O3     O      0.86058400000000     0.96060730000000     0.86425200000000
O3     O      0.13941600000000     0.46060730000000     0.63574800000000
O4     O      0.09877640000000     0.10986700000000     0.40539700000000
O4     O      0.90122360000000     0.60986700000000     0.09460300000000
O4     O      0.90122360000000     0.89013300000000     0.59460300000000
O4     O      0.09877640000000     0.39013300000000     0.90539700000000
H1     H      0.05776290000000     0.40115000000000     0.36491700000000
H1     H      0.94223710000000     0.90115000000000     0.13508300000000
H1     H      0.94223710000000     0.59885000000000     0.63508300000000
H1     H      0.05776290000000     0.09885000000000     0.86491700000000
H2     H      0.43584400000000     0.42421300000000     0.88817300000000
H2     H      0.56415600000000     0.92421300000000     0.61182700000000
H2     H      0.56415600000000     0.57578700000000     0.11182700000000
H2     H      0.43584400000000     0.07578700000000     0.38817300000000
