data_default
_cell_volume           852.635979
_symmetry_space_group_name_H-M 'P 1'
_symmetry_Int_Tables_number 1
loop_
_symmetry_equiv_pos_site_id
_symmetry_equiv_pos_as_xyz
1 x,y,z
_cell_length_a        12.6383231552
_cell_length_b         5.9193008049
_cell_length_c        11.4769584482
_cell_angle_alpha        90.0000
_cell_angle_beta        96.7525
_cell_angle_gamma        90.0000
_cell_formula_units_Z 1
loop_
_atom_site_label
_atom_site_type_symbol
_atom_site_fract_x
_atom_site_fract_y
_atom_site_fract_z
C0_0   C      0.64249374954391     0.49512322505781     0.12462368418725
C0_0   C      0.35750625045609     0.99512322505781     0.37537631581275
C0_0   C      0.35750625045609     0.50487677494219     0.87537631581275
C0_0   C      0.64249374954391     0.00487677494219     0.62462368418725
C1_0   C      0.70557259899916     0.65817285624609     0.18565376382081
C1_0   C      0.29442740100084     0.15817285624609     0.31434623617919
C1_0   C      0.29442740100084     0.34182714375391     0.81434623617919
C1_0   C      0.70557259899916     0.84182714375391     0.68565376382081
C3_0   C      0.68764681270541     0.34669493205627     0.05012387516537
C3_0   C      0.31235318729459     0.84669493205627     0.44987612483463
C3_0   C      0.31235318729459     0.65330506794373     0.94987612483463
C3_0   C      0.68764681270541     0.15330506794373     0.55012387516537
H0_0   H      0.55824827583410     0.48430554422605     0.13566124687632
H0_0   H      0.44175172416590     0.98430554422605     0.36433875312368
H0_0   H      0.44175172416590     0.51569445577395     0.86433875312368
H0_0   H      0.55824827583410     0.01569445577395     0.63566124687632
C2_0   C      0.81424340032943     0.67266023577235     0.17297571037245
C2_0   C      0.18575659967057     0.17266023577235     0.32702428962755
C2_0   C      0.18575659967057     0.32733976422765     0.82702428962755
C2_0   C      0.81424340032943     0.82733976422765     0.67297571037245
N0_0   N      0.65399526147446     0.82150743985066     0.25589856999666
N0_0   N      0.34600473852554     0.32150743985066     0.24410143000334
N0_0   N      0.34600473852554     0.17849256014934     0.74410143000334
N0_0   N      0.65399526147446     0.67849256014934     0.75589856999666
C4_0   C      0.79661212208950     0.36283085884322     0.03652060471162
C4_0   C      0.20338787791050     0.86283085884322     0.46347939528838
C4_0   C      0.20338787791050     0.63716914115678     0.96347939528838
C4_0   C      0.79661212208950     0.13716914115678     0.53652060471162
Cl0_0  Cl     0.60969783062731     0.14416124715754     0.97626459601930
Cl0_0  Cl     0.39030216937269     0.64416124715754     0.52373540398070
Cl0_0  Cl     0.39030216937269     0.85583875284246     0.02373540398070
Cl0_0  Cl     0.60969783062731     0.35583875284246     0.47626459601930
C5_0   C      0.85943732976078     0.52756119124056     0.09832000151452
C5_0   C      0.14056267023922     0.02756119124056     0.40167999848548
C5_0   C      0.14056267023922     0.47243880875944     0.90167999848548
C5_0   C      0.85943732976078     0.97243880875944     0.59832000151452
N1_0   N      0.88750219197276     0.82230185148500     0.24587090415237
N1_0   N      0.11249780802724     0.32230185148500     0.25412909584763
N1_0   N      0.11249780802724     0.17769814851500     0.75412909584763
N1_0   N      0.88750219197276     0.67769814851500     0.74587090415237
O0_0   O      0.57295845327887     0.75992914771068     0.29843764857920
O0_0   O      0.42704154672113     0.25992914771068     0.20156235142080
O0_0   O      0.42704154672113     0.24007085228932     0.70156235142080
O0_0   O      0.57295845327887     0.74007085228932     0.79843764857920
O1_0   O      0.69358763161983     0.01306547271960     0.26646957020379
O1_0   O      0.30641236838017     0.51306547271960     0.23353042979621
O1_0   O      0.30641236838017     0.98693452728040     0.73353042979621
O1_0   O      0.69358763161983     0.48693452728040     0.76646957020379
Cl1_0  Cl     0.85452715675725     0.17996336182589     0.94826667503408
Cl1_0  Cl     0.14547284324275     0.67996336182589     0.55173332496592
Cl1_0  Cl     0.14547284324275     0.82003663817411     0.05173332496592
Cl1_0  Cl     0.85452715675725     0.32003663817411     0.44826667503408
H1_0   H      0.94429676762441     0.53692535641914     0.09113988452052
H1_0   H      0.05570323237559     0.03692535641914     0.40886011547948
H1_0   H      0.05570323237559     0.46307464358086     0.90886011547948
H1_0   H      0.94429676762441     0.96307464358086     0.59113988452052
O2_0   O      0.88771177643712     0.80746856652481     0.35333018187667
O2_0   O      0.11228822356288     0.30746856652481     0.14666981812333
O2_0   O      0.11228822356288     0.19253143347519     0.64666981812333
O2_0   O      0.88771177643712     0.69253143347519     0.85333018187667
O3_0   O      0.94689498373311     0.94412850630886     0.19519011150989
O3_0   O      0.05310501626689     0.44412850630886     0.30480988849011
O3_0   O      0.05310501626689     0.05587149369114     0.80480988849011
O3_0   O      0.94689498373311     0.55587149369114     0.69519011150989
