data_default
_cell_volume           390.381369
_symmetry_space_group_name_H-M 'P 1'
_symmetry_Int_Tables_number 1
loop_
_symmetry_equiv_pos_site_id
_symmetry_equiv_pos_as_xyz
1 x,y,z
_cell_length_a         7.1291000000
_cell_length_b         9.3334000000
_cell_length_c         7.9029000000
_cell_angle_alpha        80.9561
_cell_angle_beta       102.4079
_cell_angle_gamma        54.4115
_cell_formula_units_Z 1
loop_
_atom_site_label
_atom_site_type_symbol
_atom_site_fract_x
_atom_site_fract_y
_atom_site_fract_z
Cl1    Cl     0.70249000000000     0.01427000000000     0.24575000000000
Cl1    Cl     0.29751000000000     0.98573000000000     0.75425000000000
C2     C      0.02053000000000     0.74581000000000     0.86551000000000
C2     C      0.97947000000000     0.25419000000000     0.13449000000000
C3     C      0.09787000000000     0.63563000000000     0.75643000000000
C3     C      0.90213000000000     0.36437000000000     0.24357000000000
C4     C      0.99858000000000     0.71899000000000     0.56545000000000
C4     C      0.00142000000000     0.28101000000000     0.43455000000000
C5     C      0.82160000000000     0.91429000000000     0.48231000000000
C5     C      0.17840000000000     0.08571000000000     0.51769000000000
C6     C      0.74563000000000     0.02566000000000     0.59262000000000
C6     C      0.25437000000000     0.97434000000000     0.40738000000000
C7     C      0.84572000000000     0.94020000000000     0.78447000000000
C7     C      0.15428000000000     0.05980000000000     0.21553000000000
N8     N      0.10525000000000     0.66221000000000     0.06569000000000
N8     N      0.89475000000000     0.33779000000000     0.93431000000000
N9     N      0.29687000000000     0.43170000000000     0.83771000000000
N9     N      0.70313000000000     0.56830000000000     0.16229000000000
O10    O      0.15221000000000     0.73784000000000     0.16062000000000
O10    O      0.84779000000000     0.26216000000000     0.83938000000000
O11    O      0.11454000000000     0.52692000000000     0.12122000000000
O11    O      0.88546000000000     0.47308000000000     0.87878000000000
O12    O      0.47892000000000     0.37320000000000     0.97176000000000
O12    O      0.52108000000000     0.62680000000000     0.02824000000000
O13    O      0.26874000000000     0.33690000000000     0.76162000000000
O13    O      0.73126000000000     0.66310000000000     0.23838000000000
H14    H      0.06124000000000     0.63165000000000     0.48224000000000
H14    H      0.93876000000000     0.36835000000000     0.51776000000000
H15    H      0.78629000000000     0.02425000000000     0.87090000000000
H15    H      0.21371000000000     0.97575000000000     0.12910000000000
Cl16   Cl     0.52846000000000     0.26647000000000     0.49550000000000
Cl16   Cl     0.47154000000000     0.73353000000000     0.50450000000000
