data_default
_cell_volume          1734.802154
_symmetry_space_group_name_H-M 'P 1'
_symmetry_Int_Tables_number 1
loop_
_symmetry_equiv_pos_site_id
_symmetry_equiv_pos_as_xyz
1 x,y,z
_cell_length_a         8.2391300000
_cell_length_b        17.0751000000
_cell_length_c        12.3312000000
_cell_angle_alpha        90.0000
_cell_angle_beta        90.0000
_cell_angle_gamma        90.0000
_cell_formula_units_Z 1
loop_
_atom_site_label
_atom_site_type_symbol
_atom_site_fract_x
_atom_site_fract_y
_atom_site_fract_z
C1     C      0.08466000000000     0.20735000000000     0.19537000000000
C1     C      0.41534000000000     0.79265000000000     0.69537000000000
C1     C      0.58466000000000     0.29265000000000     0.80463000000000
C1     C      0.91534000000000     0.70735000000000     0.30463000000000
C1     C      0.91534000000000     0.79265000000000     0.80463000000000
C1     C      0.58466000000000     0.20735000000000     0.30463000000000
C1     C      0.41534000000000     0.70735000000000     0.19537000000000
C1     C      0.08466000000000     0.29265000000000     0.69537000000000
C2     C      0.13898000000000     0.20923000000000     0.08693000000000
C2     C      0.36102000000000     0.79077000000000     0.58693000000000
C2     C      0.63898000000000     0.29077000000000     0.91307000000000
C2     C      0.86102000000000     0.70923000000000     0.41307000000000
C2     C      0.86102000000000     0.79077000000000     0.91307000000000
C2     C      0.63898000000000     0.20923000000000     0.41307000000000
C2     C      0.36102000000000     0.70923000000000     0.08693000000000
C2     C      0.13898000000000     0.29077000000000     0.58693000000000
C3     C      0.17890000000000     0.13871000000000     0.03522000000000
C3     C      0.32110000000000     0.86129000000000     0.53522000000000
C3     C      0.67890000000000     0.36129000000000     0.96478000000000
C3     C      0.82110000000000     0.63871000000000     0.46478000000000
C3     C      0.82110000000000     0.86129000000000     0.96478000000000
C3     C      0.67890000000000     0.13871000000000     0.46478000000000
C3     C      0.32110000000000     0.63871000000000     0.03522000000000
C3     C      0.17890000000000     0.36129000000000     0.53522000000000
C4     C      0.16412000000000     0.06734000000000     0.08874000000000
C4     C      0.33588000000000     0.93266000000000     0.58874000000000
C4     C      0.66412000000000     0.43266000000000     0.91126000000000
C4     C      0.83588000000000     0.56734000000000     0.41126000000000
C4     C      0.83588000000000     0.93266000000000     0.91126000000000
C4     C      0.66412000000000     0.06734000000000     0.41126000000000
C4     C      0.33588000000000     0.56734000000000     0.08874000000000
C4     C      0.16412000000000     0.43266000000000     0.58874000000000
C5     C      0.10631000000000     0.06540000000000     0.19488000000000
C5     C      0.39369000000000     0.93460000000000     0.69488000000000
C5     C      0.60631000000000     0.43460000000000     0.80512000000000
C5     C      0.89369000000000     0.56540000000000     0.30512000000000
C5     C      0.89369000000000     0.93460000000000     0.80512000000000
C5     C      0.60631000000000     0.06540000000000     0.30512000000000
C5     C      0.39369000000000     0.56540000000000     0.19488000000000
C5     C      0.10631000000000     0.43460000000000     0.69488000000000
C6     C      0.06673000000000     0.13486000000000     0.24735000000000
C6     C      0.43327000000000     0.86514000000000     0.74735000000000
C6     C      0.56673000000000     0.36514000000000     0.75265000000000
C6     C      0.93327000000000     0.63486000000000     0.25265000000000
C6     C      0.93327000000000     0.86514000000000     0.75265000000000
C6     C      0.56673000000000     0.13486000000000     0.25265000000000
C6     C      0.43327000000000     0.63486000000000     0.24735000000000
C6     C      0.06673000000000     0.36514000000000     0.74735000000000
N1     N      0.05163000000000     0.28037000000000     0.25787000000000
N1     N      0.44837000000000     0.71963000000000     0.75787000000000
N1     N      0.55163000000000     0.21963000000000     0.74213000000000
N1     N      0.94837000000000     0.78037000000000     0.24213000000000
N1     N      0.94837000000000     0.71963000000000     0.74213000000000
N1     N      0.55163000000000     0.28037000000000     0.24213000000000
N1     N      0.44837000000000     0.78037000000000     0.25787000000000
N1     N      0.05163000000000     0.21963000000000     0.75787000000000
O1     O      0.95541000000000     0.27482000000000     0.33249000000000
O1     O      0.54459000000000     0.72518000000000     0.83249000000000
O1     O      0.45541000000000     0.22518000000000     0.66751000000000
O1     O      0.04459000000000     0.77482000000000     0.16751000000000
O1     O      0.04459000000000     0.72518000000000     0.66751000000000
O1     O      0.45541000000000     0.27482000000000     0.16751000000000
O1     O      0.54459000000000     0.77482000000000     0.33249000000000
O1     O      0.95541000000000     0.22518000000000     0.83249000000000
O2     O      0.15668000000000     0.33053000000000     0.25477000000000
O2     O      0.34332000000000     0.66947000000000     0.75477000000000
O2     O      0.65668000000000     0.16947000000000     0.74523000000000
O2     O      0.84332000000000     0.83053000000000     0.24523000000000
O2     O      0.84332000000000     0.66947000000000     0.74523000000000
O2     O      0.65668000000000     0.33053000000000     0.24523000000000
O2     O      0.34332000000000     0.83053000000000     0.25477000000000
O2     O      0.15668000000000     0.16947000000000     0.75477000000000
H1     H      0.22302000000000     0.13882000000000     0.95203000000000
H1     H      0.27698000000000     0.86118000000000     0.45203000000000
H1     H      0.72302000000000     0.36118000000000     0.04797000000000
H1     H      0.77698000000000     0.63882000000000     0.54797000000000
H1     H      0.77698000000000     0.86118000000000     0.04797000000000
H1     H      0.72302000000000     0.13882000000000     0.54797000000000
H1     H      0.27698000000000     0.63882000000000     0.95203000000000
H1     H      0.22302000000000     0.36118000000000     0.45203000000000
H2     H      0.02420000000000     0.13182000000000     0.33078000000000
H2     H      0.47580000000000     0.86818000000000     0.83078000000000
H2     H      0.52420000000000     0.36818000000000     0.66922000000000
H2     H      0.97580000000000     0.63182000000000     0.16922000000000
H2     H      0.97580000000000     0.86818000000000     0.66922000000000
H2     H      0.52420000000000     0.13182000000000     0.16922000000000
H2     H      0.47580000000000     0.63182000000000     0.33078000000000
H2     H      0.02420000000000     0.36818000000000     0.83078000000000
N2     N      0.15405000000000     0.28422000000000     0.02560000000000
N2     N      0.34595000000000     0.71578000000000     0.52560000000000
N2     N      0.65405000000000     0.21578000000000     0.97440000000000
N2     N      0.84595000000000     0.78422000000000     0.47440000000000
N2     N      0.84595000000000     0.71578000000000     0.97440000000000
N2     N      0.65405000000000     0.28422000000000     0.47440000000000
N2     N      0.34595000000000     0.78422000000000     0.02560000000000
N2     N      0.15405000000000     0.21578000000000     0.52560000000000
O3     O      0.04015000000000     0.32964000000000     0.03256000000000
O3     O      0.45985000000000     0.67036000000000     0.53256000000000
O3     O      0.54015000000000     0.17036000000000     0.96744000000000
O3     O      0.95985000000000     0.82964000000000     0.46744000000000
O3     O      0.95985000000000     0.67036000000000     0.96744000000000
O3     O      0.54015000000000     0.32964000000000     0.46744000000000
O3     O      0.45985000000000     0.82964000000000     0.03256000000000
O3     O      0.04015000000000     0.17036000000000     0.53256000000000
O4     O      0.25531000000000     0.28705000000000     0.95335000000000
O4     O      0.24469000000000     0.71295000000000     0.45335000000000
O4     O      0.75531000000000     0.21295000000000     0.04665000000000
O4     O      0.74469000000000     0.78705000000000     0.54665000000000
O4     O      0.74469000000000     0.71295000000000     0.04665000000000
O4     O      0.75531000000000     0.28705000000000     0.54665000000000
O4     O      0.24469000000000     0.78705000000000     0.95335000000000
O4     O      0.25531000000000     0.21295000000000     0.45335000000000
Cl1    Cl     0.08480000000000     0.97819000000000     0.26471000000000
Cl1    Cl     0.41520000000000     0.02181000000000     0.76471000000000
Cl1    Cl     0.58480000000000     0.52181000000000     0.73529000000000
Cl1    Cl     0.91520000000000     0.47819000000000     0.23529000000000
Cl1    Cl     0.91520000000000     0.02181000000000     0.73529000000000
Cl1    Cl     0.58480000000000     0.97819000000000     0.23529000000000
Cl1    Cl     0.41520000000000     0.47819000000000     0.26471000000000
Cl1    Cl     0.08480000000000     0.52181000000000     0.76471000000000
Cl2    Cl     0.21780000000000     0.98235000000000     0.02130000000000
Cl2    Cl     0.28220000000000     0.01765000000000     0.52130000000000
Cl2    Cl     0.71780000000000     0.51765000000000     0.97870000000000
Cl2    Cl     0.78220000000000     0.48235000000000     0.47870000000000
Cl2    Cl     0.78220000000000     0.01765000000000     0.97870000000000
Cl2    Cl     0.71780000000000     0.98235000000000     0.47870000000000
Cl2    Cl     0.28220000000000     0.48235000000000     0.02130000000000
Cl2    Cl     0.21780000000000     0.51765000000000     0.52130000000000
