data_default
_cell_volume           428.825349
_symmetry_space_group_name_H-M 'P 1'
_symmetry_Int_Tables_number 1
loop_
_symmetry_equiv_pos_site_id
_symmetry_equiv_pos_as_xyz
1 x,y,z
_cell_length_a        19.9980000000
_cell_length_b         6.8290000000
_cell_length_c         3.7690000000
_cell_angle_alpha       101.6950
_cell_angle_beta        90.5080
_cell_angle_gamma        58.9140
_cell_formula_units_Z 1
loop_
_atom_site_label
_atom_site_type_symbol
_atom_site_fract_x
_atom_site_fract_y
_atom_site_fract_z
Cl1    Cl     0.42460000000000     0.80810000000000     0.85610000000000
Cl1    Cl     0.57540000000000     0.19190000000000     0.14390000000000
C2     C      0.17300000000000     0.01450000000000     0.02240000000000
C2     C      0.82700000000000     0.98550000000000     0.97760000000000
C3     C      0.19330000000000     0.18510000000000     0.07490000000000
C3     C      0.80670000000000     0.81490000000000     0.92510000000000
C4     C      0.26900000000000     0.12740000000000     0.02180000000000
C4     C      0.73100000000000     0.87260000000000     0.97820000000000
C5     C      0.32650000000000     0.89220000000000     0.91810000000000
C5     C      0.67350000000000     0.10780000000000     0.08190000000000
C6     C      0.30890000000000     0.72080000000000     0.86070000000000
C6     C      0.69110000000000     0.27920000000000     0.13930000000000
C7     C      0.23100000000000     0.77860000000000     0.91440000000000
C7     C      0.76900000000000     0.22140000000000     0.08560000000000
N8     N      0.09100000000000     0.07720000000000     0.10560000000000
N8     N      0.90900000000000     0.92280000000000     0.89440000000000
N9     N      0.13040000000000     0.43770000000000     0.16390000000000
N9     N      0.86960000000000     0.56230000000000     0.83610000000000
O10    O      0.06820000000000     0.97380000000000     0.89260000000000
O10    O      0.93180000000000     0.02620000000000     0.10740000000000
O11    O      0.05530000000000     0.22440000000000     0.38840000000000
O11    O      0.94470000000000     0.77560000000000     0.61160000000000
O12    O      0.07510000000000     0.49900000000000     0.98930000000000
O12    O      0.92490000000000     0.50100000000000     0.01070000000000
O13    O      0.14160000000000     0.56640000000000     0.39550000000000
O13    O      0.85840000000000     0.43360000000000     0.60450000000000
H14    H      0.28350000000000     0.26220000000000     0.06320000000000
H14    H      0.71650000000000     0.73780000000000     0.93680000000000
H15    H      0.21630000000000     0.64420000000000     0.87150000000000
H15    H      0.78370000000000     0.35580000000000     0.12850000000000
Cl16   Cl     0.38440000000000     0.42780000000000     0.72180000000000
Cl16   Cl     0.61560000000000     0.57220000000000     0.27820000000000
