data_dellavalle.XVII.003
# Della Valle's submission for compound XVII, choice 3

# Compound  XVII
# Choice    3
# Energy    -390009.7140 kJ/mol
# Filename  01941/C0194100352/C0194100352.min

_symmetry_cell_setting               Orthorhombic
_symmetry_space_group_name_H-M       'P 21 21 21'
_symmetry_Int_Tables_number                 19

loop_
_symmetry_equiv_pos_site_id
_symmetry_equiv_pos_as_xyz
   1 x,y,z
   2 1/2-x,-y,1/2+z
   3 1/2+x,1/2-y,-z
   4 -x,1/2+y,1/2-z

_cell_length_a         6.07760
_cell_length_b        10.52570
_cell_length_c        12.64460
_cell_angle_alpha           90
_cell_angle_beta            90
_cell_angle_gamma           90
_cell_volume           808.888

loop_
_atom_site_label
_atom_site_type_symbol
_atom_site_fract_x
_atom_site_fract_y
_atom_site_fract_z
Cl15 Cl  0.24390  0.19197  0.33757
Cl16 Cl -0.07227  0.16620  0.24660
O11  O   0.34495  0.15205  0.18897
O12  O  -0.02797  0.16969 -0.00890
O13  O   0.16877  0.05370 -0.09877
O14  O   0.55534  0.06214  0.09027
N9   N   0.07625  0.07960 -0.02249
N10  N   0.38715  0.07090  0.13047
C1   C   0.25568 -0.11957  0.17830
C2   C  -0.07096 -0.09795  0.04316
C3   C   0.08411 -0.00730  0.04621
C4   C   0.24677 -0.01634  0.11604
C5   C   0.06500  0.29889  0.39091
C6   C  -0.10269  0.28964  0.32567
H7   H   0.37933 -0.13501  0.22605
H8   H  -0.19339 -0.09360 -0.00800


