data_default
_cell_volume           840.941217
_symmetry_space_group_name_H-M 'P 1'
_symmetry_Int_Tables_number 1
loop_
_symmetry_equiv_pos_site_id
_symmetry_equiv_pos_as_xyz
1 x,y,z
_cell_length_a        19.9485000000
_cell_length_b         8.9119000000
_cell_length_c         7.0746000000
_cell_angle_alpha        90.0000
_cell_angle_beta       138.0389
_cell_angle_gamma        90.0000
_cell_formula_units_Z 1
loop_
_atom_site_label
_atom_site_type_symbol
_atom_site_fract_x
_atom_site_fract_y
_atom_site_fract_z
C1     C      0.78723000000000     0.29780000000000     0.45232000000000
C1     C      0.21277000000000     0.79780000000000     0.04768000000000
C1     C      0.21277000000000     0.70220000000000     0.54768000000000
C1     C      0.78723000000000     0.20220000000000     0.95232000000000
C2     C      0.68263000000000     0.27690000000000     0.23845000000000
C2     C      0.31737000000000     0.77690000000000     0.26155000000000
C2     C      0.31737000000000     0.72310000000000     0.76155000000000
C2     C      0.68263000000000     0.22310000000000     0.73845000000000
C3     C      0.64338000000000     0.13040000000000     0.15452000000000
C3     C      0.35662000000000     0.63040000000000     0.34548000000000
C3     C      0.35662000000000     0.86960000000000     0.84548000000000
C3     C      0.64338000000000     0.36960000000000     0.65452000000000
C4     C      0.70631000000000     0.00190000000000     0.28137000000000
C4     C      0.29369000000000     0.50190000000000     0.21863000000000
C4     C      0.29369000000000     0.99810000000000     0.71863000000000
C4     C      0.70631000000000     0.49810000000000     0.78137000000000
C5     C      0.81255000000000     0.02398000000000     0.50504000000000
C5     C      0.18745000000000     0.52398000000000     0.99496000000000
C5     C      0.18745000000000     0.97602000000000     0.49496000000000
C5     C      0.81255000000000     0.47602000000000     0.00504000000000
C6     C      0.85091000000000     0.17235000000000     0.58108000000000
C6     C      0.14909000000000     0.67235000000000     0.91892000000000
C6     C      0.14909000000000     0.82765000000000     0.41892000000000
C6     C      0.85091000000000     0.32765000000000     0.08108000000000
Cl7    Cl     0.84017000000000     0.47053000000000     0.56500000000000
Cl7    Cl     0.15983000000000     0.97053000000000     0.93500000000000
Cl7    Cl     0.15983000000000     0.52947000000000     0.43500000000000
Cl7    Cl     0.84017000000000     0.02947000000000     0.06500000000000
Cl8    Cl     0.60195000000000     0.42387000000000     0.07650000000000
Cl8    Cl     0.39805000000000     0.92387000000000     0.42350000000000
Cl8    Cl     0.39805000000000     0.57613000000000     0.92350000000000
Cl8    Cl     0.60195000000000     0.07613000000000     0.57650000000000
N9     N      0.87933000000000     0.90857000000000     0.65639000000000
N9     N      0.12067000000000     0.40857000000000     0.84361000000000
N9     N      0.12067000000000     0.09143000000000     0.34361000000000
N9     N      0.87933000000000     0.59143000000000     0.15639000000000
N10    N      0.66298000000000     0.86310000000000     0.17963000000000
N10    N      0.33702000000000     0.36310000000000     0.32037000000000
N10    N      0.33702000000000     0.13690000000000     0.82037000000000
N10    N      0.66298000000000     0.63690000000000     0.67963000000000
O11    O      0.95670000000000     0.90788000000000     0.73131000000000
O11    O      0.04330000000000     0.40788000000000     0.76869000000000
O11    O      0.04330000000000     0.09212000000000     0.26869000000000
O11    O      0.95670000000000     0.59212000000000     0.23131000000000
O12    O      0.86701000000000     0.80671000000000     0.73913000000000
O12    O      0.13299000000000     0.30671000000000     0.76087000000000
O12    O      0.13299000000000     0.19329000000000     0.26087000000000
O12    O      0.86701000000000     0.69329000000000     0.23913000000000
O13    O      0.69983000000000     0.76268000000000     0.16752000000000
O13    O      0.30017000000000     0.26268000000000     0.33248000000000
O13    O      0.30017000000000     0.23732000000000     0.83248000000000
O13    O      0.69983000000000     0.73732000000000     0.66752000000000
O14    O      0.58284000000000     0.83532000000000     0.08159000000000
O14    O      0.41716000000000     0.33532000000000     0.41841000000000
O14    O      0.41716000000000     0.16468000000000     0.91841000000000
O14    O      0.58284000000000     0.66468000000000     0.58159000000000
H15    H      0.56702000000000     0.11754000000000     0.99477000000000
H15    H      0.43298000000000     0.61754000000000     0.50523000000000
H15    H      0.43298000000000     0.88246000000000     0.00523000000000
H15    H      0.56702000000000     0.38246000000000     0.49477000000000
H16    H      0.92690000000000     0.18995000000000     0.73639000000000
H16    H      0.07310000000000     0.68995000000000     0.76361000000000
H16    H      0.07310000000000     0.81005000000000     0.26361000000000
H16    H      0.92690000000000     0.31005000000000     0.23639000000000
