data_default
_cell_volume           795.427577
_symmetry_space_group_name_H-M 'P 1'
_symmetry_Int_Tables_number 1
loop_
_symmetry_equiv_pos_site_id
_symmetry_equiv_pos_as_xyz
1 x,y,z
_cell_length_a         6.2952000000
_cell_length_b        22.6471000000
_cell_length_c         5.5951000000
_cell_angle_alpha        90.0000
_cell_angle_beta        85.6910
_cell_angle_gamma        90.0000
_cell_formula_units_Z 1
loop_
_atom_site_label
_atom_site_type_symbol
_atom_site_fract_x
_atom_site_fract_y
_atom_site_fract_z
Cl1    Cl     0.01827000000000     0.44107000000000     0.22473000000000
Cl1    Cl     0.98173000000000     0.94107000000000     0.27527000000000
Cl1    Cl     0.98173000000000     0.55893000000000     0.77527000000000
Cl1    Cl     0.01827000000000     0.05893000000000     0.72473000000000
C2     C      0.72829000000000     0.34911000000000     0.61696000000000
C2     C      0.27171000000000     0.84911000000000     0.88304000000000
C2     C      0.27171000000000     0.65089000000000     0.38304000000000
C2     C      0.72829000000000     0.15089000000000     0.11696000000000
C3     C      0.64076000000000     0.40120000000000     0.71088000000000
C3     C      0.35924000000000     0.90120000000000     0.78912000000000
C3     C      0.35924000000000     0.59880000000000     0.28912000000000
C3     C      0.64076000000000     0.09880000000000     0.21088000000000
C4     C      0.73021000000000     0.42925000000000     0.89881000000000
C4     C      0.26979000000000     0.92925000000000     0.60119000000000
C4     C      0.26979000000000     0.57075000000000     0.10119000000000
C4     C      0.73021000000000     0.07075000000000     0.39881000000000
C5     C      0.90967000000000     0.40536000000000     0.99308000000000
C5     C      0.09033000000000     0.90536000000000     0.50692000000000
C5     C      0.09033000000000     0.59464000000000     0.00692000000000
C5     C      0.90967000000000     0.09464000000000     0.49308000000000
C6     C      0.99952000000000     0.35312000000000     0.89639000000000
C6     C      0.00048000000000     0.85312000000000     0.60361000000000
C6     C      0.00048000000000     0.64688000000000     0.10361000000000
C6     C      0.99952000000000     0.14688000000000     0.39639000000000
C7     C      0.90744000000000     0.32513000000000     0.70833000000000
C7     C      0.09256000000000     0.82513000000000     0.79167000000000
C7     C      0.09256000000000     0.67487000000000     0.29167000000000
C7     C      0.90744000000000     0.17487000000000     0.20833000000000
N8     N      0.62775000000000     0.31576000000000     0.43294000000000
N8     N      0.37225000000000     0.81576000000000     0.06706000000000
N8     N      0.37225000000000     0.68424000000000     0.56706000000000
N8     N      0.62775000000000     0.18424000000000     0.93294000000000
N9     N      0.46323000000000     0.43037000000000     0.60592000000000
N9     N      0.53677000000000     0.93037000000000     0.89408000000000
N9     N      0.53677000000000     0.56963000000000     0.39408000000000
N9     N      0.46323000000000     0.06963000000000     0.10592000000000
O10    O      0.74676000000000     0.29364000000000     0.27358000000000
O10    O      0.25324000000000     0.79364000000000     0.22642000000000
O10    O      0.25324000000000     0.70636000000000     0.72642000000000
O10    O      0.74676000000000     0.20636000000000     0.77358000000000
O11    O      0.43302000000000     0.31117000000000     0.45796000000000
O11    O      0.56698000000000     0.81117000000000     0.04204000000000
O11    O      0.56698000000000     0.68883000000000     0.54204000000000
O11    O      0.43302000000000     0.18883000000000     0.95796000000000
O12    O      0.47065000000000     0.43219000000000     0.38614000000000
O12    O      0.52935000000000     0.93219000000000     0.11386000000000
O12    O      0.52935000000000     0.56781000000000     0.61386000000000
O12    O      0.47065000000000     0.06781000000000     0.88614000000000
O13    O      0.32560000000000     0.45217000000000     0.74602000000000
O13    O      0.67440000000000     0.95217000000000     0.75398000000000
O13    O      0.67440000000000     0.54783000000000     0.25398000000000
O13    O      0.32560000000000     0.04783000000000     0.24602000000000
H14    H      0.66110000000000     0.46990000000000     0.96949000000000
H14    H      0.33890000000000     0.96990000000000     0.53051000000000
H14    H      0.33890000000000     0.53010000000000     0.03051000000000
H14    H      0.66110000000000     0.03010000000000     0.46949000000000
H15    H      0.97336000000000     0.28443000000000     0.63436000000000
H15    H      0.02664000000000     0.78443000000000     0.86564000000000
H15    H      0.02664000000000     0.71557000000000     0.36564000000000
H15    H      0.97336000000000     0.21557000000000     0.13436000000000
Cl16   Cl     0.22048000000000     0.32240000000000     0.00735000000000
Cl16   Cl     0.77952000000000     0.82240000000000     0.49265000000000
Cl16   Cl     0.77952000000000     0.67760000000000     0.99265000000000
Cl16   Cl     0.22048000000000     0.17760000000000     0.50735000000000
