data_default
_cell_volume           836.372443
_symmetry_space_group_name_H-M 'P 1'
_symmetry_Int_Tables_number 1
loop_
_symmetry_equiv_pos_site_id
_symmetry_equiv_pos_as_xyz
1 x,y,z
_cell_length_a         9.6490000000
_cell_length_b         8.8885000000
_cell_length_c        11.4765000000
_cell_angle_alpha        90.0000
_cell_angle_beta       121.8180
_cell_angle_gamma        90.0000
_cell_formula_units_Z 1
loop_
_atom_site_label
_atom_site_type_symbol
_atom_site_fract_x
_atom_site_fract_y
_atom_site_fract_z
Cl1    Cl     0.84760000000000     0.53034000000000     0.29148000000000
Cl1    Cl     0.15240000000000     0.03034000000000     0.20852000000000
Cl1    Cl     0.15240000000000     0.46966000000000     0.70852000000000
Cl1    Cl     0.84760000000000     0.96966000000000     0.79148000000000
Cl2    Cl     0.65250000000000     0.52456000000000     0.96128000000000
Cl2    Cl     0.34750000000000     0.02456000000000     0.53872000000000
Cl2    Cl     0.34750000000000     0.47544000000000     0.03872000000000
Cl2    Cl     0.65250000000000     0.97544000000000     0.46128000000000
O1     O      0.77939000000000     0.19809000000000     0.01292000000000
O1     O      0.22061000000000     0.69809000000000     0.48708000000000
O1     O      0.22061000000000     0.80191000000000     0.98708000000000
O1     O      0.77939000000000     0.30191000000000     0.51292000000000
O2     O      0.54703000000000     0.10386000000000     0.85395000000000
O2     O      0.45297000000000     0.60386000000000     0.64605000000000
O2     O      0.45297000000000     0.89614000000000     0.14605000000000
O2     O      0.54703000000000     0.39614000000000     0.35395000000000
O3     O      0.71502000000000     0.20277000000000     0.22051000000000
O3     O      0.28498000000000     0.70277000000000     0.27949000000000
O3     O      0.28498000000000     0.79723000000000     0.77949000000000
O3     O      0.71502000000000     0.29723000000000     0.72051000000000
O4     O      0.94816000000000     0.11260000000000     0.38213000000000
O4     O      0.05184000000000     0.61260000000000     0.11787000000000
O4     O      0.05184000000000     0.88740000000000     0.61787000000000
O4     O      0.94816000000000     0.38740000000000     0.88213000000000
N1     N      0.67399000000000     0.10120000000000     0.96562000000000
N1     N      0.32601000000000     0.60120000000000     0.53438000000000
N1     N      0.32601000000000     0.89880000000000     0.03438000000000
N1     N      0.67399000000000     0.39880000000000     0.46562000000000
N2     N      0.82123000000000     0.10672000000000     0.27058000000000
N2     N      0.17877000000000     0.60672000000000     0.22942000000000
N2     N      0.17877000000000     0.89328000000000     0.72942000000000
N2     N      0.82123000000000     0.39328000000000     0.77058000000000
C1     C      0.78931000000000     0.96640000000000     0.19165000000000
C1     C      0.21069000000000     0.46640000000000     0.30835000000000
C1     C      0.21069000000000     0.03360000000000     0.80835000000000
C1     C      0.78931000000000     0.53360000000000     0.69165000000000
C2     C      0.70673000000000     0.69241000000000     0.05209000000000
C2     C      0.29327000000000     0.19241000000000     0.44791000000000
C2     C      0.29327000000000     0.30759000000000     0.94791000000000
C2     C      0.70673000000000     0.80759000000000     0.55209000000000
C3     C      0.70709000000000     0.96388000000000     0.04855000000000
C3     C      0.29291000000000     0.46388000000000     0.45145000000000
C3     C      0.29291000000000     0.03612000000000     0.95145000000000
C3     C      0.70709000000000     0.53612000000000     0.54855000000000
C4     C      0.83236000000000     0.83261000000000     0.26483000000000
C4     C      0.16764000000000     0.33261000000000     0.23517000000000
C4     C      0.16764000000000     0.16739000000000     0.73517000000000
C4     C      0.83236000000000     0.66739000000000     0.76483000000000
H1     H      0.89615000000000     0.83616000000000     0.37569000000000
H1     H      0.10385000000000     0.33616000000000     0.12431000000000
H1     H      0.10385000000000     0.16384000000000     0.62431000000000
H1     H      0.89615000000000     0.66384000000000     0.87569000000000
C5     C      0.79197000000000     0.69493000000000     0.19590000000000
C5     C      0.20803000000000     0.19493000000000     0.30410000000000
C5     C      0.20803000000000     0.30507000000000     0.80410000000000
C5     C      0.79197000000000     0.80507000000000     0.69590000000000
C6     C      0.66519000000000     0.82761000000000     0.97923000000000
C6     C      0.33481000000000     0.32761000000000     0.52077000000000
C6     C      0.33481000000000     0.17239000000000     0.02077000000000
C6     C      0.66519000000000     0.67239000000000     0.47923000000000
H2     H      0.60137000000000     0.82726000000000     0.86831000000000
H2     H      0.39863000000000     0.32726000000000     0.63169000000000
H2     H      0.39863000000000     0.17274000000000     0.13169000000000
H2     H      0.60137000000000     0.67274000000000     0.36831000000000
