data_default
_cell_volume           871.460925
_symmetry_space_group_name_H-M 'P 1'
_symmetry_Int_Tables_number 1
loop_
_symmetry_equiv_pos_site_id
_symmetry_equiv_pos_as_xyz
1 x,y,z
_cell_length_a         7.9452000000
_cell_length_b         8.9333000000
_cell_length_c        12.2781000000
_cell_angle_alpha        90.0000
_cell_angle_beta        90.0000
_cell_angle_gamma        90.0000
_cell_formula_units_Z 1
loop_
_atom_site_label
_atom_site_type_symbol
_atom_site_fract_x
_atom_site_fract_y
_atom_site_fract_z
Cl1    Cl     0.51874000000000     0.51049000000000     0.86442000000000
Cl1    Cl     0.48126000000000     0.48951000000000     0.36442000000000
Cl1    Cl     0.98126000000000     0.51049000000000     0.36442000000000
Cl1    Cl     0.01874000000000     0.48951000000000     0.86442000000000
Cl2    Cl     0.70917000000000     0.49309000000000     0.09582000000000
Cl2    Cl     0.29083000000000     0.50691000000000     0.59582000000000
Cl2    Cl     0.79083000000000     0.49309000000000     0.59582000000000
Cl2    Cl     0.20917000000000     0.50691000000000     0.09582000000000
O1     O      0.57867000000000     0.16280000000000     0.11517000000000
O1     O      0.42133000000000     0.83720000000000     0.61517000000000
O1     O      0.92133000000000     0.16280000000000     0.61517000000000
O1     O      0.07867000000000     0.83720000000000     0.11517000000000
O2     O      0.81578000000000     0.06611000000000     0.16971000000000
O2     O      0.18422000000000     0.93389000000000     0.66971000000000
O2     O      0.68422000000000     0.06611000000000     0.66971000000000
O2     O      0.31578000000000     0.93389000000000     0.16971000000000
O3     O      0.65553000000000     0.17831000000000     0.89616000000000
O3     O      0.34447000000000     0.82169000000000     0.39616000000000
O3     O      0.84447000000000     0.17831000000000     0.39616000000000
O3     O      0.15553000000000     0.82169000000000     0.89616000000000
O4     O      0.41756000000000     0.09177000000000     0.83461000000000
O4     O      0.58244000000000     0.90823000000000     0.33461000000000
O4     O      0.08244000000000     0.09177000000000     0.33461000000000
O4     O      0.91756000000000     0.90823000000000     0.83461000000000
N1     N      0.68727000000000     0.06625000000000     0.11533000000000
N1     N      0.31273000000000     0.93375000000000     0.61533000000000
N1     N      0.81273000000000     0.06625000000000     0.61533000000000
N1     N      0.18727000000000     0.93375000000000     0.11533000000000
N2     N      0.54604000000000     0.08312000000000     0.88868000000000
N2     N      0.45396000000000     0.91688000000000     0.38868000000000
N2     N      0.95396000000000     0.08312000000000     0.38868000000000
N2     N      0.04604000000000     0.91688000000000     0.88868000000000
C1     C      0.57597000000000     0.94054000000000     0.94613000000000
C1     C      0.42403000000000     0.05946000000000     0.44613000000000
C1     C      0.92403000000000     0.94054000000000     0.44613000000000
C1     C      0.07597000000000     0.05946000000000     0.94613000000000
C2     C      0.65634000000000     0.66317000000000     0.03676000000000
C2     C      0.34366000000000     0.33683000000000     0.53676000000000
C2     C      0.84366000000000     0.66317000000000     0.53676000000000
C2     C      0.15634000000000     0.33683000000000     0.03676000000000
C3     C      0.65603000000000     0.93294000000000     0.04733000000000
C3     C      0.34397000000000     0.06706000000000     0.54733000000000
C3     C      0.84397000000000     0.93294000000000     0.54733000000000
C3     C      0.15603000000000     0.06706000000000     0.04733000000000
C4     C      0.53385000000000     0.81010000000000     0.89121000000000
C4     C      0.46615000000000     0.18990000000000     0.39121000000000
C4     C      0.96615000000000     0.81010000000000     0.39121000000000
C4     C      0.03385000000000     0.18990000000000     0.89121000000000
H1     H      0.47169000000000     0.81758000000000     0.81290000000000
H1     H      0.52831000000000     0.18242000000000     0.31290000000000
H1     H      0.02831000000000     0.81758000000000     0.31290000000000
H1     H      0.97169000000000     0.18242000000000     0.81290000000000
C5     C      0.57312000000000     0.67074000000000     0.93609000000000
C5     C      0.42688000000000     0.32926000000000     0.43609000000000
C5     C      0.92688000000000     0.67074000000000     0.43609000000000
C5     C      0.07312000000000     0.32926000000000     0.93609000000000
C6     C      0.69690000000000     0.79501000000000     0.09200000000000
C6     C      0.30310000000000     0.20499000000000     0.59200000000000
C6     C      0.80310000000000     0.79501000000000     0.59200000000000
C6     C      0.19690000000000     0.20499000000000     0.09200000000000
H2     H      0.75906000000000     0.79071000000000     0.17044000000000
H2     H      0.24094000000000     0.20929000000000     0.67044000000000
H2     H      0.74094000000000     0.79071000000000     0.67044000000000
H2     H      0.25906000000000     0.20929000000000     0.17044000000000
