data_default
_cell_volume           419.638072
_symmetry_space_group_name_H-M 'P 1'
_symmetry_Int_Tables_number 1
loop_
_symmetry_equiv_pos_site_id
_symmetry_equiv_pos_as_xyz
1 x,y,z
_cell_length_a         8.8871000000
_cell_length_b         7.3016000000
_cell_length_c         8.2548000000
_cell_angle_alpha        82.7157
_cell_angle_beta        55.7574
_cell_angle_gamma        99.8362
_cell_formula_units_Z 1
loop_
_atom_site_label
_atom_site_type_symbol
_atom_site_fract_x
_atom_site_fract_y
_atom_site_fract_z
C1     C      0.95454000000000     0.23867000000000     0.08246000000000
C1     C      0.04546000000000     0.76133000000000     0.91754000000000
C2     C      0.05942000000000     0.27368000000000     0.86946000000000
C2     C      0.94058000000000     0.72632000000000     0.13054000000000
C3     C      0.96566000000000     0.28239000000000     0.77815000000000
C3     C      0.03434000000000     0.71761000000000     0.22185000000000
C4     C      0.76755000000000     0.26210000000000     0.89393000000000
C4     C      0.23245000000000     0.73790000000000     0.10607000000000
C5     C      0.66446000000000     0.23633000000000     0.10859000000000
C5     C      0.33554000000000     0.76367000000000     0.89141000000000
C6     C      0.75888000000000     0.22123000000000     0.19986000000000
C6     C      0.24112000000000     0.77877000000000     0.80014000000000
Cl7    Cl     0.05684000000000     0.21764000000000     0.20338000000000
Cl7    Cl     0.94316000000000     0.78236000000000     0.79662000000000
Cl8    Cl     0.29750000000000     0.30655000000000     0.71753000000000
Cl8    Cl     0.70250000000000     0.69345000000000     0.28247000000000
N9     N      0.47781000000000     0.22921000000000     0.23064000000000
N9     N      0.52219000000000     0.77079000000000     0.76936000000000
N10    N      0.68255000000000     0.26336000000000     0.79787000000000
N10    N      0.31745000000000     0.73664000000000     0.20213000000000
O11    O      0.36166000000000     0.09820000000000     0.38138000000000
O11    O      0.63834000000000     0.90180000000000     0.61862000000000
O12    O      0.42388000000000     0.35841000000000     0.19610000000000
O12    O      0.57612000000000     0.64159000000000     0.80390000000000
O13    O      0.51649000000000     0.18254000000000     0.88483000000000
O13    O      0.48351000000000     0.81746000000000     0.11517000000000
O14    O      0.76900000000000     0.33821000000000     0.61875000000000
O14    O      0.23100000000000     0.66179000000000     0.38125000000000
H15    H      0.04385000000000     0.30222000000000     0.62363000000000
H15    H      0.95615000000000     0.69778000000000     0.37637000000000
H16    H      0.68456000000000     0.19965000000000     0.35432000000000
H16    H      0.31544000000000     0.80035000000000     0.64568000000000
