data_default
_cell_volume           826.840066
_symmetry_space_group_name_H-M 'P 1'
_symmetry_Int_Tables_number 1
loop_
_symmetry_equiv_pos_site_id
_symmetry_equiv_pos_as_xyz
1 x,y,z
_cell_length_a        11.4034000000
_cell_length_b         8.9603000000
_cell_length_c         8.0966000000
_cell_angle_alpha        90.0000
_cell_angle_beta        91.8970
_cell_angle_gamma        90.0000
_cell_formula_units_Z 1
loop_
_atom_site_label
_atom_site_type_symbol
_atom_site_fract_x
_atom_site_fract_y
_atom_site_fract_z
Cl1    Cl     0.12018000000000     0.04366000000000     0.15079000000000
Cl1    Cl     0.62018000000000     0.54366000000000     0.15079000000000
Cl1    Cl     0.87982000000000     0.04366000000000     0.34921000000000
Cl1    Cl     0.37982000000000     0.54366000000000     0.34921000000000
Cl1    Cl     0.87982000000000     0.95634000000000     0.84921000000000
Cl1    Cl     0.37982000000000     0.45634000000000     0.84921000000000
Cl1    Cl     0.12018000000000     0.95634000000000     0.65079000000000
Cl1    Cl     0.62018000000000     0.45634000000000     0.65079000000000
O1     O      0.11964000000000     0.71136000000000     0.28224000000000
O1     O      0.61964000000000     0.21136000000000     0.28224000000000
O1     O      0.88036000000000     0.71136000000000     0.21776000000000
O1     O      0.38036000000000     0.21136000000000     0.21776000000000
O1     O      0.88036000000000     0.28864000000000     0.71776000000000
O1     O      0.38036000000000     0.78864000000000     0.71776000000000
O1     O      0.11964000000000     0.28864000000000     0.78224000000000
O1     O      0.61964000000000     0.78864000000000     0.78224000000000
O2     O      0.17122000000000     0.61988000000000     0.04624000000000
O2     O      0.67122000000000     0.11988000000000     0.04624000000000
O2     O      0.82878000000000     0.61988000000000     0.45376000000000
O2     O      0.32878000000000     0.11988000000000     0.45376000000000
O2     O      0.82878000000000     0.38012000000000     0.95376000000000
O2     O      0.32878000000000     0.88012000000000     0.95376000000000
O2     O      0.17122000000000     0.38012000000000     0.54624000000000
O2     O      0.67122000000000     0.88012000000000     0.54624000000000
N1     N      0.11875000000000     0.61564000000000     0.17504000000000
N1     N      0.61875000000000     0.11564000000000     0.17504000000000
N1     N      0.88125000000000     0.61564000000000     0.32496000000000
N1     N      0.38125000000000     0.11564000000000     0.32496000000000
N1     N      0.88125000000000     0.38436000000000     0.82496000000000
N1     N      0.38125000000000     0.88436000000000     0.82496000000000
N1     N      0.11875000000000     0.38436000000000     0.67504000000000
N1     N      0.61875000000000     0.88436000000000     0.67504000000000
C1     C      0.05263000000000     0.47792000000000     0.20819000000000
C1     C      0.55263000000000     0.97792000000000     0.20819000000000
C1     C      0.94737000000000     0.47792000000000     0.29181000000000
C1     C      0.44737000000000     0.97792000000000     0.29181000000000
C1     C      0.94737000000000     0.52208000000000     0.79181000000000
C1     C      0.44737000000000     0.02208000000000     0.79181000000000
C1     C      0.05263000000000     0.52208000000000     0.70819000000000
C1     C      0.55263000000000     0.02208000000000     0.70819000000000
C2     C      0.05227000000000     0.20857000000000     0.20665000000000
C2     C      0.55227000000000     0.70857000000000     0.20665000000000
C2     C      0.94773000000000     0.20857000000000     0.29335000000000
C2     C      0.44773000000000     0.70857000000000     0.29335000000000
C2     C      0.94773000000000     0.79143000000000     0.79335000000000
C2     C      0.44773000000000     0.29143000000000     0.79335000000000
C2     C      0.05227000000000     0.79143000000000     0.70665000000000
C2     C      0.55227000000000     0.29143000000000     0.70665000000000
C4     C      0.10432000000000     0.34395000000000     0.16499000000000
C4     C      0.60432000000000     0.84395000000000     0.16499000000000
C4     C      0.89568000000000     0.34395000000000     0.33501000000000
C4     C      0.39568000000000     0.84395000000000     0.33501000000000
C4     C      0.89568000000000     0.65605000000000     0.83501000000000
C4     C      0.39568000000000     0.15605000000000     0.83501000000000
C4     C      0.10432000000000     0.65605000000000     0.66499000000000
C4     C      0.60432000000000     0.15605000000000     0.66499000000000
H1     H      0.18584000000000     0.34553000000000     0.10007000000000
H1     H      0.68584000000000     0.84553000000000     0.10007000000000
H1     H      0.81416000000000     0.34553000000000     0.39993000000000
H1     H      0.31416000000000     0.84553000000000     0.39993000000000
H1     H      0.81416000000000     0.65447000000000     0.89993000000000
H1     H      0.31416000000000     0.15447000000000     0.89993000000000
H1     H      0.18584000000000     0.65447000000000     0.60007000000000
H1     H      0.68584000000000     0.15447000000000     0.60007000000000
