data_default
_cell_volume           345.919772
_symmetry_space_group_name_H-M 'P 1'
_symmetry_Int_Tables_number 1
loop_
_symmetry_equiv_pos_site_id
_symmetry_equiv_pos_as_xyz
1 x,y,z
_cell_length_a         4.0722000000
_cell_length_b         8.0825000000
_cell_length_c        10.5100000000
_cell_angle_alpha        90.0000
_cell_angle_beta        90.1800
_cell_angle_gamma        90.0000
_cell_formula_units_Z 1
loop_
_atom_site_label
_atom_site_type_symbol
_atom_site_fract_x
_atom_site_fract_y
_atom_site_fract_z
C      C      0.21326000000000     0.13774000000000     0.11415000000000
C      C      0.78674000000000     0.86226000000000     0.88585000000000
C      C      0.78674000000000     0.63774000000000     0.38585000000000
C      C      0.21326000000000     0.36226000000000     0.61415000000000
C      C      0.28346000000000     0.00322000000000     0.21318000000000
C      C      0.71654000000000     0.99678000000000     0.78682000000000
C      C      0.71654000000000     0.50322000000000     0.28682000000000
C      C      0.28346000000000     0.49678000000000     0.71318000000000
C      C      0.22401000000000     0.06456000000000     0.34898000000000
C      C      0.77599000000000     0.93544000000000     0.65102000000000
C      C      0.77599000000000     0.56456000000000     0.15102000000000
C      C      0.22401000000000     0.43544000000000     0.84898000000000
H      H      0.25234000000000     0.09742000000000     0.02488000000000
H      H      0.74766000000000     0.90258000000000     0.97512000000000
H      H      0.74766000000000     0.59742000000000     0.47512000000000
H      H      0.25234000000000     0.40258000000000     0.52488000000000
H      H      0.35666000000000     0.23795000000000     0.12673000000000
H      H      0.64334000000000     0.76205000000000     0.87327000000000
H      H      0.64334000000000     0.73795000000000     0.37327000000000
H      H      0.35666000000000     0.26205000000000     0.62673000000000
H      H      0.97892000000000     0.17722000000000     0.11768000000000
H      H      0.02108000000000     0.82278000000000     0.88232000000000
H      H      0.02108000000000     0.67722000000000     0.38232000000000
H      H      0.97892000000000     0.32278000000000     0.61768000000000
H      H      0.51725000000000     0.96425000000000     0.20469000000000
H      H      0.48275000000000     0.03575000000000     0.79531000000000
H      H      0.48275000000000     0.46425000000000     0.29531000000000
H      H      0.51725000000000     0.53575000000000     0.70469000000000
H      H      0.14130000000000     0.90380000000000     0.19569000000000
H      H      0.85870000000000     0.09620000000000     0.80431000000000
H      H      0.85870000000000     0.40380000000000     0.30431000000000
H      H      0.14130000000000     0.59620000000000     0.69569000000000
H      H      0.27015000000000     0.97614000000000     0.41408000000000
H      H      0.72985000000000     0.02386000000000     0.58592000000000
H      H      0.72985000000000     0.47614000000000     0.08592000000000
H      H      0.27015000000000     0.52386000000000     0.91408000000000
H      H      0.36784000000000     0.16179000000000     0.37112000000000
H      H      0.63216000000000     0.83821000000000     0.62888000000000
H      H      0.63216000000000     0.66179000000000     0.12888000000000
H      H      0.36784000000000     0.33821000000000     0.87112000000000
H      H      0.99010000000000     0.10106000000000     0.36207000000000
H      H      0.00990000000000     0.89894000000000     0.63793000000000
H      H      0.00990000000000     0.60106000000000     0.13793000000000
H      H      0.99010000000000     0.39894000000000     0.86207000000000
