data_default
_cell_volume           378.163422
_symmetry_space_group_name_H-M 'P 1'
_symmetry_Int_Tables_number 1
loop_
_symmetry_equiv_pos_site_id
_symmetry_equiv_pos_as_xyz
1 x,y,z
_cell_length_a         4.1900000000
_cell_length_b         8.1900000000
_cell_length_c        11.0200000000
_cell_angle_alpha        90.0000
_cell_angle_beta        90.0000
_cell_angle_gamma        90.0000
_cell_formula_units_Z 1
loop_
_atom_site_label
_atom_site_type_symbol
_atom_site_fract_x
_atom_site_fract_y
_atom_site_fract_z
H      H      0.24188000000000     0.31508000000000     0.24057000000000
H      H      0.25812000000000     0.68492000000000     0.74057000000000
H      H      0.74188000000000     0.18492000000000     0.75943000000000
H      H      0.75812000000000     0.81508000000000     0.25943000000000
C      C      0.21226000000000     0.33971000000000     0.14442000000000
C      C      0.28774000000000     0.66029000000000     0.64442000000000
C      C      0.71226000000000     0.16029000000000     0.85558000000000
C      C      0.78774000000000     0.83971000000000     0.35558000000000
C      C      0.18730000000000     0.52278000000000     0.12006000000000
C      C      0.31270000000000     0.47722000000000     0.62006000000000
C      C      0.68730000000000     0.97722000000000     0.87994000000000
C      C      0.81270000000000     0.02278000000000     0.37994000000000
C      C      0.14565000000000     0.55742000000000     0.98485000000000
C      C      0.35435000000000     0.44258000000000     0.48485000000000
C      C      0.64565000000000     0.94258000000000     0.01515000000000
C      C      0.85435000000000     0.05742000000000     0.51515000000000
H      H      0.99934000000000     0.27599000000000     0.11423000000000
H      H      0.50066000000000     0.72401000000000     0.61423000000000
H      H      0.49934000000000     0.22401000000000     0.88577000000000
H      H      0.00066000000000     0.77599000000000     0.38577000000000
H      H      0.41484000000000     0.28673000000000     0.09724000000000
H      H      0.08516000000000     0.71327000000000     0.59724000000000
H      H      0.91484000000000     0.21327000000000     0.90276000000000
H      H      0.58516000000000     0.78673000000000     0.40276000000000
H      H      0.98472000000000     0.57576000000000     0.16723000000000
H      H      0.51528000000000     0.42424000000000     0.66723000000000
H      H      0.48472000000000     0.92424000000000     0.83277000000000
H      H      0.01528000000000     0.07576000000000     0.33277000000000
H      H      0.40022000000000     0.58650000000000     0.15025000000000
H      H      0.09978000000000     0.41350000000000     0.65025000000000
H      H      0.90022000000000     0.91350000000000     0.84975000000000
H      H      0.59978000000000     0.08650000000000     0.34975000000000
H      H      0.12789000000000     0.68762000000000     0.96753000000000
H      H      0.37211000000000     0.31238000000000     0.46753000000000
H      H      0.62789000000000     0.81238000000000     0.03247000000000
H      H      0.87211000000000     0.18762000000000     0.53247000000000
H      H      0.34620000000000     0.51106000000000     0.93282000000000
H      H      0.15380000000000     0.48894000000000     0.43282000000000
H      H      0.84620000000000     0.98894000000000     0.06718000000000
H      H      0.65380000000000     0.01106000000000     0.56718000000000
H      H      0.93069000000000     0.50032000000000     0.94981000000000
H      H      0.56931000000000     0.49968000000000     0.44981000000000
H      H      0.43069000000000     0.99968000000000     0.05019000000000
H      H      0.06931000000000     0.00032000000000     0.55019000000000
