data_default
_cell_volume           337.308568
_symmetry_space_group_name_H-M 'P 1'
_symmetry_Int_Tables_number 1
loop_
_symmetry_equiv_pos_site_id
_symmetry_equiv_pos_as_xyz
1 x,y,z
_cell_length_a         4.1527600000
_cell_length_b         6.5393500000
_cell_length_c        12.4451600000
_cell_angle_alpha        90.0000
_cell_angle_beta        86.4280
_cell_angle_gamma        90.0000
_cell_formula_units_Z 1
loop_
_atom_site_label
_atom_site_type_symbol
_atom_site_fract_x
_atom_site_fract_y
_atom_site_fract_z
C      C      0.21434200000000     0.28714500000000     0.05294300000000
C      C      0.78565800000000     0.71285500000000     0.94705700000000
C      C      0.78565800000000     0.78714500000000     0.44705700000000
C      C      0.21434200000000     0.21285500000000     0.55294300000000
H      H      0.30343700000000     0.26121600000000     0.96992000000000
H      H      0.69656300000000     0.73878400000000     0.03008000000000
H      H      0.69656300000000     0.76121600000000     0.53008000000000
H      H      0.30343700000000     0.23878400000000     0.46992000000000
H      H      0.32658100000000     0.42658300000000     0.08063700000000
H      H      0.67341900000000     0.57341700000000     0.91936300000000
H      H      0.67341900000000     0.92658300000000     0.41936300000000
H      H      0.32658100000000     0.07341700000000     0.58063700000000
H      H      0.95547400000000     0.31393000000000     0.05306700000000
H      H      0.04452600000000     0.68607000000000     0.94693300000000
H      H      0.04452600000000     0.81393000000000     0.44693300000000
H      H      0.95547400000000     0.18607000000000     0.55306700000000
C      C      0.29060700000000     0.10445000000000     0.12397500000000
C      C      0.70939300000000     0.89555000000000     0.87602500000000
C      C      0.70939300000000     0.60445000000000     0.37602500000000
C      C      0.29060700000000     0.39555000000000     0.62397500000000
H      H      0.54878200000000     0.07395000000000     0.11601800000000
H      H      0.45121800000000     0.92605000000000     0.88398200000000
H      H      0.45121800000000     0.57395000000000     0.38398200000000
H      H      0.54878200000000     0.42605000000000     0.61601800000000
H      H      0.17266400000000     0.96781200000000     0.09522900000000
H      H      0.82733600000000     0.03218800000000     0.90477100000000
H      H      0.82733600000000     0.46781200000000     0.40477100000000
H      H      0.17266400000000     0.53218800000000     0.59522900000000
C      C      0.18789600000000     0.13959800000000     0.24282100000000
C      C      0.81210400000000     0.86040200000000     0.75717900000000
C      C      0.81210400000000     0.63959800000000     0.25717900000000
C      C      0.18789600000000     0.36040200000000     0.74282100000000
H      H      0.25608800000000     0.01027400000000     0.29160800000000
H      H      0.74391200000000     0.98972600000000     0.70839200000000
H      H      0.74391200000000     0.51027400000000     0.20839200000000
H      H      0.25608800000000     0.48972600000000     0.79160800000000
H      H      0.92765400000000     0.15929600000000     0.25501200000000
H      H      0.07234600000000     0.84070400000000     0.74498800000000
H      H      0.07234600000000     0.65929600000000     0.24498800000000
H      H      0.92765400000000     0.34070400000000     0.75501200000000
H      H      0.30299100000000     0.27536900000000     0.27357400000000
H      H      0.69700900000000     0.72463100000000     0.72642600000000
H      H      0.69700900000000     0.77536900000000     0.22642600000000
H      H      0.30299100000000     0.22463100000000     0.77357400000000
