data_default
_cell_volume           346.215449
_symmetry_space_group_name_H-M 'P 1'
_symmetry_Int_Tables_number 1
loop_
_symmetry_equiv_pos_site_id
_symmetry_equiv_pos_as_xyz
1 x,y,z
_cell_length_a         8.0644000000
_cell_length_b         4.0738000000
_cell_length_c        10.5384000000
_cell_angle_alpha        90.0000
_cell_angle_beta        90.0000
_cell_angle_gamma        90.0000
_cell_formula_units_Z 1
loop_
_atom_site_label
_atom_site_type_symbol
_atom_site_fract_x
_atom_site_fract_y
_atom_site_fract_z
C      C      0.13697000000000     0.04447000000000     0.13602000000000
C      C      0.36303000000000     0.95553000000000     0.63602000000000
C      C      0.63697000000000     0.45553000000000     0.86398000000000
C      C      0.86303000000000     0.54447000000000     0.36398000000000
C      C      0.00230000000000     0.97430000000000     0.03714000000000
C      C      0.49770000000000     0.02570000000000     0.53714000000000
C      C      0.50230000000000     0.52570000000000     0.96286000000000
C      C      0.99770000000000     0.47430000000000     0.46286000000000
C      C      0.06323000000000     0.03840000000000     0.90169000000000
C      C      0.43677000000000     0.96160000000000     0.40169000000000
C      C      0.56323000000000     0.46160000000000     0.09831000000000
C      C      0.93677000000000     0.53840000000000     0.59831000000000
H      H      0.09692000000000     0.00233000000000     0.22505000000000
H      H      0.40308000000000     0.99767000000000     0.72505000000000
H      H      0.59692000000000     0.49767000000000     0.77495000000000
H      H      0.90308000000000     0.50233000000000     0.27495000000000
H      H      0.17539000000000     0.27955000000000     0.13307000000000
H      H      0.32461000000000     0.72045000000000     0.63307000000000
H      H      0.67539000000000     0.22045000000000     0.86693000000000
H      H      0.82461000000000     0.77955000000000     0.36693000000000
H      H      0.23807000000000     0.90337000000000     0.12298000000000
H      H      0.26193000000000     0.09663000000000     0.62298000000000
H      H      0.73807000000000     0.59663000000000     0.87702000000000
H      H      0.76193000000000     0.40337000000000     0.37702000000000
H      H      0.90201000000000     0.11405000000000     0.05508000000000
H      H      0.59799000000000     0.88595000000000     0.55508000000000
H      H      0.40201000000000     0.38595000000000     0.94492000000000
H      H      0.09799000000000     0.61405000000000     0.44492000000000
H      H      0.96440000000000     0.73966000000000     0.04503000000000
H      H      0.53560000000000     0.26034000000000     0.54503000000000
H      H      0.46440000000000     0.76034000000000     0.95497000000000
H      H      0.03560000000000     0.23966000000000     0.45497000000000
H      H      0.97471000000000     0.99227000000000     0.83669000000000
H      H      0.52529000000000     0.00773000000000     0.33669000000000
H      H      0.47471000000000     0.50773000000000     0.16331000000000
H      H      0.02529000000000     0.49227000000000     0.66331000000000
H      H      0.09865000000000     0.27323000000000     0.88921000000000
H      H      0.40135000000000     0.72677000000000     0.38921000000000
H      H      0.59865000000000     0.22677000000000     0.11079000000000
H      H      0.90135000000000     0.77323000000000     0.61079000000000
H      H      0.16133000000000     0.89706000000000     0.87911000000000
H      H      0.33867000000000     0.10294000000000     0.37911000000000
H      H      0.66133000000000     0.60294000000000     0.12089000000000
H      H      0.83867000000000     0.39706000000000     0.62089000000000
