data_default
_cell_volume           191.757229
_symmetry_space_group_name_H-M 'P 1'
_symmetry_Int_Tables_number 1
loop_
_symmetry_equiv_pos_site_id
_symmetry_equiv_pos_as_xyz
1 x,y,z
_cell_length_a        15.0140000000
_cell_length_b         4.3360000000
_cell_length_c         4.1420000000
_cell_angle_alpha       102.5280
_cell_angle_beta        69.1890
_cell_angle_gamma        60.3490
_cell_formula_units_Z 1
loop_
_atom_site_label
_atom_site_type_symbol
_atom_site_fract_x
_atom_site_fract_y
_atom_site_fract_z
C      C      0.35362000000000     0.98495000000000     0.28494000000000
C      C      0.64638000000000     0.01505000000000     0.71506000000000
C      C      0.23853000000000     0.41080000000000     0.44077000000000
C      C      0.76147000000000     0.58920000000000     0.55923000000000
C      C      0.13026000000000     0.42443000000000     0.50157000000000
C      C      0.86974000000000     0.57557000000000     0.49843000000000
H      H      0.42721000000000     0.99442000000000     0.24777000000000
H      H      0.57279000000000     0.00558000000000     0.75223000000000
H      H      0.38015000000000     0.78135000000000     0.00346000000000
H      H      0.61985000000000     0.21865000000000     0.99654000000000
H      H      0.33516000000000     0.87693000000000     0.49303000000000
H      H      0.66484000000000     0.12307000000000     0.50697000000000
H      H      0.25876000000000     0.51532000000000     0.23089000000000
H      H      0.74124000000000     0.48468000000000     0.76911000000000
H      H      0.21375000000000     0.61094000000000     0.72063000000000
H      H      0.78625000000000     0.38906000000000     0.27937000000000
H      H      0.05194000000000     0.73197000000000     0.61155000000000
H      H      0.94806000000000     0.26803000000000     0.38845000000000
H      H      0.10828000000000     0.32333000000000     0.71307000000000
H      H      0.89172000000000     0.67667000000000     0.28693000000000
H      H      0.15327000000000     0.22774000000000     0.22350000000000
H      H      0.84673000000000     0.77226000000000     0.77650000000000
