data_default
_cell_volume           192.719252
_symmetry_space_group_name_H-M 'P 1'
_symmetry_Int_Tables_number 1
loop_
_symmetry_equiv_pos_site_id
_symmetry_equiv_pos_as_xyz
1 x,y,z
_cell_length_a         4.1810000000
_cell_length_b         8.1430000000
_cell_length_c         6.7930000000
_cell_angle_alpha        76.0130
_cell_angle_beta        59.7570
_cell_angle_gamma        77.6990
_cell_formula_units_Z 1
loop_
_atom_site_label
_atom_site_type_symbol
_atom_site_fract_x
_atom_site_fract_y
_atom_site_fract_z
C      C      0.52543000000000     0.17901000000000     0.12198000000000
C      C      0.47457000000000     0.82099000000000     0.87802000000000
C      C      0.45547000000000     0.32118000000000     0.25559000000000
C      C      0.54453000000000     0.67882000000000     0.74441000000000
C      C      0.39303000000000     0.25446000000000     0.50048000000000
C      C      0.60697000000000     0.74554000000000     0.49952000000000
H      H      0.56771000000000     0.23406000000000     0.94975000000000
H      H      0.43229000000000     0.76594000000000     0.05025000000000
H      H      0.28728000000000     0.10691000000000     0.21067000000000
H      H      0.71272000000000     0.89309000000000     0.78933000000000
H      H      0.77094000000000     0.09519000000000     0.11072000000000
H      H      0.22906000000000     0.90481000000000     0.88928000000000
H      H      0.21092000000000     0.40439000000000     0.26389000000000
H      H      0.78908000000000     0.59561000000000     0.73611000000000
H      H      0.69475000000000     0.39267000000000     0.16390000000000
H      H      0.30525000000000     0.60733000000000     0.83610000000000
H      H      0.34526000000000     0.36039000000000     0.58594000000000
H      H      0.65474000000000     0.63961000000000     0.41406000000000
H      H      0.63645000000000     0.17182000000000     0.49519000000000
H      H      0.36355000000000     0.82818000000000     0.50481000000000
H      H      0.15279000000000     0.18354000000000     0.59514000000000
H      H      0.84721000000000     0.81646000000000     0.40486000000000
