data_default
_cell_volume           169.442883
_symmetry_space_group_name_H-M 'P 1'
_symmetry_Int_Tables_number 1
loop_
_symmetry_equiv_pos_site_id
_symmetry_equiv_pos_as_xyz
1 x,y,z
_cell_length_a         4.1338000000
_cell_length_b         6.4681800000
_cell_length_c         8.0316600000
_cell_angle_alpha        52.3170
_cell_angle_beta        85.8340
_cell_angle_gamma        86.2130
_cell_formula_units_Z 1
loop_
_atom_site_label
_atom_site_type_symbol
_atom_site_fract_x
_atom_site_fract_y
_atom_site_fract_z
C      C      0.18753800000000     0.24220900000000     0.23791500000000
C      C      0.81246200000000     0.75779100000000     0.76208500000000
H      H      0.25234800000000     0.44582600000000     0.12148600000000
H      H      0.74765200000000     0.55417400000000     0.87851400000000
H      H      0.30537300000000     0.16713700000000     0.38269900000000
H      H      0.69462700000000     0.83286300000000     0.61730100000000
H      H      0.92613700000000     0.23753100000000     0.26904600000000
H      H      0.07386300000000     0.76246900000000     0.73095400000000
C      C      0.29125100000000     0.08340600000000     0.15877800000000
C      C      0.70874900000000     0.91659400000000     0.84122200000000
H      H      0.55115600000000     0.10140000000000     0.12096800000000
H      H      0.44884400000000     0.89860000000000     0.87903200000000
H      H      0.17353300000000     0.16584700000000     0.01221200000000
H      H      0.82646700000000     0.83415300000000     0.98778800000000
C      C      0.21204700000000     0.79393000000000     0.31949800000000
C      C      0.78795300000000     0.20607000000000     0.68050200000000
H      H      0.29424100000000     0.68551500000000     0.26030200000000
H      H      0.70575900000000     0.31448500000000     0.73969800000000
H      H      0.95181300000000     0.76786200000000     0.35433900000000
H      H      0.04818700000000     0.23213800000000     0.64566100000000
H      H      0.33009300000000     0.70502800000000     0.46705900000000
H      H      0.66990700000000     0.29497200000000     0.53294100000000
