data_default
_cell_volume           349.375905
_symmetry_space_group_name_H-M 'P 1'
_symmetry_Int_Tables_number 1
loop_
_symmetry_equiv_pos_site_id
_symmetry_equiv_pos_as_xyz
1 x,y,z
_cell_length_a         6.5540000000
_cell_length_b         4.0580000000
_cell_length_c        13.5300000000
_cell_angle_alpha        90.0000
_cell_angle_beta        76.1450
_cell_angle_gamma        90.0000
_cell_formula_units_Z 1
loop_
_atom_site_label
_atom_site_type_symbol
_atom_site_fract_x
_atom_site_fract_y
_atom_site_fract_z
C      C      0.38610000000000     0.21105000000000     0.15619000000000
C      C      0.61390000000000     0.78895000000000     0.84381000000000
C      C      0.61390000000000     0.71105000000000     0.34381000000000
C      C      0.38610000000000     0.28895000000000     0.65619000000000
H      H      0.55337000000000     0.28584000000000     0.12922000000000
H      H      0.44663000000000     0.71416000000000     0.87078000000000
H      H      0.44663000000000     0.78584000000000     0.37078000000000
H      H      0.55337000000000     0.21416000000000     0.62922000000000
H      H      0.38354000000000     0.94237000000000     0.17224000000000
H      H      0.61646000000000     0.05763000000000     0.82776000000000
H      H      0.61646000000000     0.44237000000000     0.32776000000000
H      H      0.38354000000000     0.55763000000000     0.67224000000000
H      H      0.32210000000000     0.33915000000000     0.22968000000000
H      H      0.67790000000000     0.66085000000000     0.77032000000000
H      H      0.67790000000000     0.83915000000000     0.27032000000000
H      H      0.32210000000000     0.16085000000000     0.72968000000000
C      C      0.25952000000000     0.29467000000000     0.07781000000000
C      C      0.74048000000000     0.70533000000000     0.92219000000000
C      C      0.74048000000000     0.79467000000000     0.42219000000000
C      C      0.25952000000000     0.20533000000000     0.57781000000000
H      H      0.32548000000000     0.16011000000000     0.00553000000000
H      H      0.67452000000000     0.83989000000000     0.99447000000000
H      H      0.67452000000000     0.66011000000000     0.49447000000000
H      H      0.32548000000000     0.33989000000000     0.50553000000000
H      H      0.27671000000000     0.56182000000000     0.05939000000000
H      H      0.72329000000000     0.43818000000000     0.94061000000000
H      H      0.72329000000000     0.06182000000000     0.44061000000000
H      H      0.27671000000000     0.93818000000000     0.55939000000000
C      C      0.02583000000000     0.21099000000000     0.11614000000000
C      C      0.97417000000000     0.78901000000000     0.88386000000000
C      C      0.97417000000000     0.71099000000000     0.38386000000000
C      C      0.02583000000000     0.28901000000000     0.61614000000000
H      H      0.93558000000000     0.27878000000000     0.05934000000000
H      H      0.06442000000000     0.72122000000000     0.94066000000000
H      H      0.06442000000000     0.77878000000000     0.44066000000000
H      H      0.93558000000000     0.22122000000000     0.55934000000000
H      H      0.95401000000000     0.34522000000000     0.18762000000000
H      H      0.04599000000000     0.65478000000000     0.81238000000000
H      H      0.04599000000000     0.84522000000000     0.31238000000000
H      H      0.95401000000000     0.15478000000000     0.68762000000000
H      H      0.00106000000000     0.94341000000000     0.13198000000000
H      H      0.99894000000000     0.05659000000000     0.86802000000000
H      H      0.99894000000000     0.44341000000000     0.36802000000000
H      H      0.00106000000000     0.55659000000000     0.63198000000000
