data_default
_cell_volume          2554.728492
_symmetry_space_group_name_H-M 'P 1'
_symmetry_Int_Tables_number 1
loop_
_symmetry_equiv_pos_site_id
_symmetry_equiv_pos_as_xyz
1 x,y,z
_cell_length_a        29.9093000000
_cell_length_b        11.6051000000
_cell_length_c         7.3602000000
_cell_angle_alpha        90.0000
_cell_angle_beta        90.0000
_cell_angle_gamma        90.0000
_cell_formula_units_Z 1
loop_
_atom_site_label
_atom_site_type_symbol
_atom_site_fract_x
_atom_site_fract_y
_atom_site_fract_z
C C     0.99484400000000     0.14626200000000     0.87594300000000
C C     0.49484400000000     0.35373800000000     0.12405700000000
C C     0.00515600000000     0.64626200000000     0.62405700000000
C C     0.50515600000000     0.85373800000000     0.37594300000000
C C     0.00515600000000     0.85373800000000     0.12405700000000
C C     0.50515600000000     0.64626200000000     0.87594300000000
C C     0.99484400000000     0.35373800000000     0.37594300000000
C C     0.49484400000000     0.14626200000000     0.62405700000000
C C     0.03915000000000     0.17465800000000     0.84310400000000
C C     0.53915000000000     0.32534200000000     0.15689600000000
C C     0.96085000000000     0.67465800000000     0.65689600000000
C C     0.46085000000000     0.82534200000000     0.34310400000000
C C     0.96085000000000     0.82534200000000     0.15689600000000
C C     0.46085000000000     0.67465800000000     0.84310400000000
C C     0.03915000000000     0.32534200000000     0.34310400000000
C C     0.53915000000000     0.17465800000000     0.65689600000000
C C     0.05105000000000     0.29053500000000     0.86331100000000
C C     0.55105000000000     0.20946500000000     0.13668900000000
C C     0.94895000000000     0.79053500000000     0.63668900000000
C C     0.44895000000000     0.70946500000000     0.36331100000000
C C     0.94895000000000     0.70946500000000     0.13668900000000
C C     0.44895000000000     0.79053500000000     0.86331100000000
C C     0.05105000000000     0.20946500000000     0.36331100000000
C C     0.55105000000000     0.29053500000000     0.63668900000000
C C     0.97865100000000     0.33517500000000     0.93832850000000
C C     0.47865100000000     0.16482500000000     0.06167150000000
C C     0.02134900000000     0.83517500000000     0.56167150000000
C C     0.52134900000000     0.66482500000000     0.43832850000000
C C     0.02134900000000     0.66482500000000     0.06167150000000
C C     0.52134900000000     0.83517500000000     0.93832850000000
C C     0.97865100000000     0.16482500000000     0.43832850000000
C C     0.47865100000000     0.33517500000000     0.56167150000000
C C     0.09789000000000     0.33250600000000     0.83203200000000
C C     0.59789000000000     0.16749400000000     0.16796800000000
C C     0.90211000000000     0.83250600000000     0.66796800000000
C C     0.40211000000000     0.66749400000000     0.33203200000000
C C     0.90211000000000     0.66749400000000     0.16796800000000
C C     0.40211000000000     0.83250600000000     0.83203200000000
C C     0.09789000000000     0.16749400000000     0.33203200000000
C C     0.59789000000000     0.33250600000000     0.66796800000000
N N     0.02107000000000     0.37077400000000     0.91086960000000
N N     0.52107000000000     0.12922600000000     0.08913040000000
N N     0.97893000000000     0.87077400000000     0.58913040000000
N N     0.47893000000000     0.62922600000000     0.41086960000000
N N     0.97893000000000     0.62922600000000     0.08913040000000
N N     0.47893000000000     0.87077400000000     0.91086960000000
N N     0.02107000000000     0.12922600000000     0.41086960000000
N N     0.52107000000000     0.37077400000000     0.58913040000000
N N     0.96414800000000     0.22489700000000     0.92315170000000
N N     0.46414800000000     0.27510300000000     0.07684830000000
N N     0.03585200000000     0.72489700000000     0.57684830000000
N N     0.53585200000000     0.77510300000000     0.42315170000000
N N     0.03585200000000     0.77510300000000     0.07684830000000
N N     0.53585200000000     0.72489700000000     0.92315170000000
N N     0.96414800000000     0.27510300000000     0.42315170000000
N N     0.46414800000000     0.22489700000000     0.57684830000000
N N     0.94769800000000     0.41631900000000     0.97869230000000
N N     0.44769800000000     0.08368100000000     0.02130770000000
N N     0.05230200000000     0.91631900000000     0.52130770000000
N N     0.55230200000000     0.58368100000000     0.47869230000000
N N     0.05230200000000     0.58368100000000     0.02130770000000
N N     0.55230200000000     0.91631900000000     0.97869230000000
N N     0.94769800000000     0.08368100000000     0.47869230000000
N N     0.44769800000000     0.41631900000000     0.52130770000000
H H      0.06333000000000     0.10994200000000     0.80504300000000
H H      0.56333000000000     0.39005800000000     0.19495700000000
H H      0.93667000000000     0.60994200000000     0.69495700000000
H H      0.43667000000000     0.89005800000000     0.30504300000000
H H      0.93667000000000     0.89005800000000     0.19495700000000
H H      0.43667000000000     0.60994200000000     0.80504300000000
H H      0.06333000000000     0.39005800000000     0.30504300000000
H H      0.56333000000000     0.10994200000000     0.69495700000000
H H      0.91780700000000     0.38991700000000     0.02934330000000
H H      0.41780700000000     0.11008300000000     0.97065670000000
H H      0.08219300000000     0.88991700000000     0.47065670000000
H H      0.58219300000000     0.61008300000000     0.52934330000000
H H      0.08219300000000     0.61008300000000     0.97065670000000
H H      0.58219300000000     0.88991700000000     0.02934330000000
H H      0.91780700000000     0.11008300000000     0.52934330000000
H H      0.41780700000000     0.38991700000000     0.47065670000000
H H      0.95960700000000     0.49429000000000     0.01318940000000
H H      0.45960700000000     0.00571000000000     0.98681060000000
H H      0.04039300000000     0.99429000000000     0.48681060000000
H H      0.54039300000000     0.50571000000000     0.51318940000000
H H      0.04039300000000     0.50571000000000     0.98681060000000
H H      0.54039300000000     0.99429000000000     0.01318940000000
H H      0.95960700000000     0.00571000000000     0.51318940000000
H H      0.45960700000000     0.49429000000000     0.48681060000000
H H      0.98295600000000     0.05827910000000     0.86481900000000
H H      0.48295600000000     0.44172090000000     0.13518100000000
H H      0.01704400000000     0.55827910000000     0.63518100000000
H H      0.51704400000000     0.94172090000000     0.36481900000000
H H      0.01704400000000     0.94172090000000     0.13518100000000
H H      0.51704400000000     0.55827910000000     0.86481900000000
H H      0.98295600000000     0.44172090000000     0.36481900000000
H H      0.48295600000000     0.05827910000000     0.63518100000000
H H      0.12079000000000     0.26127800000000     0.80802200000000
H H      0.62079000000000     0.23872200000000     0.19197800000000
H H      0.87921000000000     0.76127800000000     0.69197800000000
H H      0.37921000000000     0.73872200000000     0.30802200000000
H H      0.87921000000000     0.73872200000000     0.19197800000000
H H      0.37921000000000     0.76127800000000     0.80802200000000
H H      0.12079000000000     0.23872200000000     0.30802200000000
H H      0.62079000000000     0.26127800000000     0.69197800000000
H H      0.10927000000000     0.38148100000000     0.94942280000000
H H      0.60927000000000     0.11851900000000     0.05057720000000
H H      0.89073000000000     0.88148100000000     0.55057720000000
H H      0.39073000000000     0.61851900000000     0.44942280000000
H H      0.89073000000000     0.61851900000000     0.05057720000000
H H      0.39073000000000     0.88148100000000     0.94942280000000
H H      0.10927000000000     0.11851900000000     0.44942280000000
H H      0.60927000000000     0.38148100000000     0.55057720000000
H H      0.09869000000000     0.38999600000000     0.71505300000000
H H      0.59869000000000     0.11000400000000     0.28494700000000
H H      0.90131000000000     0.88999600000000     0.78494700000000
H H      0.40131000000000     0.61000400000000     0.21505300000000
H H      0.90131000000000     0.61000400000000     0.28494700000000
H H      0.40131000000000     0.88999600000000     0.71505300000000
H H      0.09869000000000     0.11000400000000     0.21505300000000
H H      0.59869000000000     0.38999600000000     0.78494700000000
C C     0.80991200000000     0.16424100000000     0.08380210000000
C C     0.30991200000000     0.33575900000000     0.91619790000000
C C     0.19008800000000     0.66424100000000     0.41619790000000
C C     0.69008800000000     0.83575900000000     0.58380210000000
C C     0.19008800000000     0.83575900000000     0.91619790000000
C C     0.69008800000000     0.66424100000000     0.08380210000000
C C     0.80991200000000     0.33575900000000     0.58380210000000
C C     0.30991200000000     0.16424100000000     0.41619790000000
C C     0.72348400000000     0.08691150000000     0.16108000000000
C C     0.22348400000000     0.41308850000000     0.83892000000000
C C     0.27651600000000     0.58691150000000     0.33892000000000
C C     0.77651600000000     0.91308850000000     0.66108000000000
C C     0.27651600000000     0.91308850000000     0.83892000000000
C C     0.77651600000000     0.58691150000000     0.16108000000000
C C     0.72348400000000     0.41308850000000     0.66108000000000
C C     0.22348400000000     0.08691150000000     0.33892000000000
C C     0.80426900000000     0.05294580000000     0.15774100000000
C C     0.30426900000000     0.44705420000000     0.84225900000000
C C     0.19573100000000     0.55294580000000     0.34225900000000
C C     0.69573100000000     0.94705420000000     0.65774100000000
C C     0.19573100000000     0.94705420000000     0.84225900000000
C C     0.69573100000000     0.55294580000000     0.15774100000000
C C     0.80426900000000     0.44705420000000     0.65774100000000
C C     0.30426900000000     0.05294580000000     0.34225900000000
C C     0.77277500000000     0.23504400000000     0.05139430000000
C C     0.27277500000000     0.26495600000000     0.94860570000000
C C     0.22722500000000     0.73504400000000     0.44860570000000
C C     0.72722500000000     0.76495600000000     0.55139430000000
C C     0.22722500000000     0.76495600000000     0.94860570000000
C C     0.72722500000000     0.73504400000000     0.05139430000000
C C     0.77277500000000     0.26495600000000     0.55139430000000
C C     0.27277500000000     0.23504400000000     0.44860570000000
C C     0.72967700000000     0.19685000000000     0.08883940000000
C C     0.22967700000000     0.30315000000000     0.91116060000000
C C     0.27032300000000     0.69685000000000     0.41116060000000
C C     0.77032300000000     0.80315000000000     0.58883940000000
C C     0.27032300000000     0.80315000000000     0.91116060000000
C C     0.77032300000000     0.69685000000000     0.08883940000000
C C     0.72967700000000     0.30315000000000     0.58883940000000
C C     0.22967700000000     0.19685000000000     0.41116060000000
C C     0.76046900000000     0.01711110000000     0.19522600000000
C C     0.26046900000000     0.48288890000000     0.80477400000000
C C     0.23953100000000     0.51711110000000     0.30477400000000
C C     0.73953100000000     0.98288890000000     0.69522600000000
C C     0.23953100000000     0.98288890000000     0.80477400000000
C C     0.73953100000000     0.51711110000000     0.19522600000000
C C     0.76046900000000     0.48288890000000     0.69522600000000
C C     0.26046900000000     0.01711110000000     0.30477400000000
C C     0.85409300000000     0.21601600000000     0.03584700000000
C C     0.35409300000000     0.28398400000000     0.96415300000000
C C     0.14590700000000     0.71601600000000     0.46415300000000
C C     0.64590700000000     0.78398400000000     0.53584700000000
C C     0.14590700000000     0.78398400000000     0.96415300000000
C C     0.64590700000000     0.71601600000000     0.03584700000000
C C     0.85409300000000     0.28398400000000     0.53584700000000
C C     0.35409300000000     0.21601600000000     0.46415300000000
C C     0.84218300000000     0.97158640000000     0.20018700000000
C C     0.34218300000000     0.52841360000000     0.79981300000000
C C     0.15781700000000     0.47158640000000     0.29981300000000
C C     0.65781700000000     0.02841360000000     0.70018700000000
C C     0.15781700000000     0.02841360000000     0.79981300000000
C C     0.65781700000000     0.47158640000000     0.20018700000000
C C     0.84218300000000     0.52841360000000     0.70018700000000
C C     0.34218300000000     0.97158640000000     0.29981300000000
H H      0.70129400000000     0.25216700000000     0.06209640000000
H H      0.20129400000000     0.24783300000000     0.93790360000000
H H      0.29870600000000     0.75216700000000     0.43790360000000
H H      0.79870600000000     0.74783300000000     0.56209640000000
H H      0.29870600000000     0.74783300000000     0.93790360000000
H H      0.79870600000000     0.75216700000000     0.06209640000000
H H      0.70129400000000     0.24783300000000     0.56209640000000
H H      0.20129400000000     0.25216700000000     0.43790360000000
H H      0.75542600000000     0.93225930000000     0.25320600000000
H H      0.25542600000000     0.56774070000000     0.74679400000000
H H      0.24457400000000     0.43225930000000     0.24679400000000
H H      0.74457400000000     0.06774070000000     0.75320600000000
H H      0.24457400000000     0.06774070000000     0.74679400000000
H H      0.74457400000000     0.43225930000000     0.25320600000000
H H      0.75542600000000     0.56774070000000     0.75320600000000
H H      0.25542600000000     0.93225930000000     0.24679400000000
H H      0.69018200000000     0.05575920000000     0.19155100000000
H H      0.19018200000000     0.44424080000000     0.80844900000000
H H      0.30981800000000     0.55575920000000     0.30844900000000
H H      0.80981800000000     0.94424080000000     0.69155100000000
H H      0.30981800000000     0.94424080000000     0.80844900000000
H H      0.80981800000000     0.55575920000000     0.19155100000000
H H      0.69018200000000     0.44424080000000     0.69155100000000
H H      0.19018200000000     0.05575920000000     0.30844900000000
H H      0.91520300000000     0.18170800000000     0.97803880000000
H H      0.41520300000000     0.31829200000000     0.02196120000000
H H      0.08479700000000     0.68170800000000     0.52196120000000
H H      0.58479700000000     0.81829200000000     0.47803880000000
H H      0.08479700000000     0.81829200000000     0.02196120000000
H H      0.58479700000000     0.68170800000000     0.97803880000000
H H      0.91520300000000     0.31829200000000     0.47803880000000
H H      0.41520300000000     0.18170800000000     0.52196120000000
H H      0.77861000000000     0.32028700000000     0.99695949000000
H H      0.27861000000000     0.17971300000000     0.00304051000000
H H      0.22139000000000     0.82028700000000     0.50304051000000
H H      0.72139000000000     0.67971300000000     0.49695949000000
H H      0.22139000000000     0.67971300000000     0.00304051000000
H H      0.72139000000000     0.82028700000000     0.99695949000000
H H      0.77861000000000     0.17971300000000     0.49695949000000
H H      0.27861000000000     0.32028700000000     0.50304051000000
H H      0.86819400000000     0.01335970000000     0.27976600000000
H H      0.36819400000000     0.48664030000000     0.72023400000000
H H      0.13180600000000     0.51335970000000     0.22023400000000
H H      0.63180600000000     0.98664030000000     0.77976600000000
H H      0.13180600000000     0.98664030000000     0.72023400000000
H H      0.63180600000000     0.51335970000000     0.27976600000000
H H      0.86819400000000     0.48664030000000     0.77976600000000
H H      0.36819400000000     0.01335970000000     0.22023400000000
H H      0.85793300000000     0.93989870000000     0.07668450000000
H H      0.35793300000000     0.56010130000000     0.92331550000000
H H      0.14206700000000     0.43989870000000     0.42331550000000
H H      0.64206700000000     0.06010130000000     0.57668450000000
H H      0.14206700000000     0.06010130000000     0.92331550000000
H H      0.64206700000000     0.43989870000000     0.07668450000000
H H      0.85793300000000     0.56010130000000     0.57668450000000
H H      0.35793300000000     0.93989870000000     0.42331550000000
H H      0.82946300000000     0.89833900000000     0.27700100000000
H H      0.32946300000000     0.60166100000000     0.72299900000000
H H      0.17053700000000     0.39833900000000     0.22299900000000
H H      0.67053700000000     0.10166100000000     0.77700100000000
H H      0.17053700000000     0.10166100000000     0.72299900000000
H H      0.67053700000000     0.39833900000000     0.27700100000000
H H      0.82946300000000     0.60166100000000     0.77700100000000
H H      0.32946300000000     0.89833900000000     0.22299900000000
O O      0.85912500000000     0.32113400000000     0.02056690000000
O O      0.35912500000000     0.17886600000000     0.97943310000000
O O      0.14087500000000     0.82113400000000     0.47943310000000
O O      0.64087500000000     0.67886600000000     0.52056690000000
O O      0.14087500000000     0.67886600000000     0.97943310000000
O O      0.64087500000000     0.82113400000000     0.02056690000000
O O      0.85912500000000     0.17886600000000     0.52056690000000
O O      0.35912500000000     0.32113400000000     0.47943310000000
O O      0.88657700000000     0.13961500000000     0.00776455000000
O O      0.38657700000000     0.36038500000000     0.99223545000000
O O      0.11342300000000     0.63961500000000     0.49223545000000
O O      0.61342300000000     0.86038500000000     0.50776455000000
O O      0.11342300000000     0.86038500000000     0.99223545000000
O O      0.61342300000000     0.63961500000000     0.00776455000000
O O      0.88657700000000     0.36038500000000     0.50776455000000
O O      0.38657700000000     0.13961500000000     0.49223545000000
