data_default
_cell_volume          1311.018580
_symmetry_space_group_name_H-M 'P 1'
_symmetry_Int_Tables_number 1
loop_
_symmetry_equiv_pos_site_id
_symmetry_equiv_pos_as_xyz
1 x,y,z
_cell_length_a        14.3532600000
_cell_length_b        12.4686300000
_cell_length_c         8.0120000000
_cell_angle_alpha        90.0000
_cell_angle_beta        66.1095
_cell_angle_gamma        90.0000
_cell_formula_units_Z 1
loop_
_atom_site_label
_atom_site_type_symbol
_atom_site_fract_x
_atom_site_fract_y
_atom_site_fract_z
N1     N      0.93248000000000     0.08430000000000     0.65892000000000
N1     N      0.56752000000000     0.58430000000000     0.34108000000000
N1     N      0.06752000000000     0.91570000000000     0.34108000000000
N1     N      0.43248000000000     0.41570000000000     0.65892000000000
C2     C      0.96470000000000     0.05245000000000     0.78748000000000
C2     C      0.53530000000000     0.55245000000000     0.21252000000000
C2     C      0.03530000000000     0.94755000000000     0.21252000000000
C2     C      0.46470000000000     0.44755000000000     0.78748000000000
N3     N      0.90195000000000     0.98468000000000     0.91836000000000
N3     N      0.59805000000000     0.48468000000000     0.08164000000000
N3     N      0.09805000000000     0.01532000000000     0.08164000000000
N3     N      0.40195000000000     0.51532000000000     0.91836000000000
N4     N      0.05212000000000     0.08036000000000     0.80043000000000
N4     N      0.44788000000000     0.58036000000000     0.19957000000000
N4     N      0.94788000000000     0.91964000000000     0.19957000000000
N4     N      0.55212000000000     0.41964000000000     0.80043000000000
C5     C      0.11393000000000     0.14703000000000     0.67174000000000
C5     C      0.38607000000000     0.64703000000000     0.32826000000000
C5     C      0.88607000000000     0.85297000000000     0.32826000000000
C5     C      0.61393000000000     0.35297000000000     0.67174000000000
C6     C      0.08817000000000     0.18516000000000     0.53177000000000
C6     C      0.41183000000000     0.68516000000000     0.46823000000000
C6     C      0.91183000000000     0.81484000000000     0.46823000000000
C6     C      0.58817000000000     0.31484000000000     0.53177000000000
H7     H      0.13777000000000     0.23905000000000     0.42737000000000
H7     H      0.36223000000000     0.73905000000000     0.57263000000000
H7     H      0.86223000000000     0.76095000000000     0.57263000000000
H7     H      0.63777000000000     0.26095000000000     0.42737000000000
C8     C      0.99554000000000     0.15067000000000     0.53248000000000
C8     C      0.50446000000000     0.65067000000000     0.46752000000000
C8     C      0.00446000000000     0.84933000000000     0.46752000000000
C8     C      0.49554000000000     0.34933000000000     0.53248000000000
H9     H      0.97052000000000     0.17707000000000     0.42777000000000
H9     H      0.52948000000000     0.67707000000000     0.57223000000000
H9     H      0.02948000000000     0.82293000000000     0.57223000000000
H9     H      0.47052000000000     0.32293000000000     0.42777000000000
C10    C      0.21147000000000     0.17790000000000     0.68701000000000
C10    C      0.28853000000000     0.67790000000000     0.31299000000000
C10    C      0.78853000000000     0.82210000000000     0.31299000000000
C10    C      0.71147000000000     0.32210000000000     0.68701000000000
H11    H      0.19442000000000     0.21720000000000     0.81820000000000
H11    H      0.30558000000000     0.71720000000000     0.18180000000000
H11    H      0.80558000000000     0.78280000000000     0.18180000000000
H11    H      0.69442000000000     0.28280000000000     0.81820000000000
H12    H      0.25626000000000     0.10604000000000     0.68183000000000
H12    H      0.24374000000000     0.60604000000000     0.31817000000000
H12    H      0.74374000000000     0.89396000000000     0.31817000000000
H12    H      0.75626000000000     0.39396000000000     0.68183000000000
H13    H      0.25691000000000     0.23211000000000     0.57696000000000
H13    H      0.24309000000000     0.73211000000000     0.42304000000000
H13    H      0.74309000000000     0.76789000000000     0.42304000000000
H13    H      0.75691000000000     0.26789000000000     0.57696000000000
H14    H      0.83581000000000     0.96162000000000     0.91425000000000
H14    H      0.66419000000000     0.46162000000000     0.08575000000000
H14    H      0.16419000000000     0.03838000000000     0.08575000000000
H14    H      0.33581000000000     0.53838000000000     0.91425000000000
H15    H      0.92271000000000     0.95873000000000     0.01709000000000
H15    H      0.57729000000000     0.45873000000000     0.98291000000000
H15    H      0.07729000000000     0.04127000000000     0.98291000000000
H15    H      0.42271000000000     0.54127000000000     0.01709000000000
C1     C      0.29869000000000     0.02752000000000     0.23281000000000
C1     C      0.20131000000000     0.52752000000000     0.76719000000000
C1     C      0.70131000000000     0.97248000000000     0.76719000000000
C1     C      0.79869000000000     0.47248000000000     0.23281000000000
C2     C      0.40217000000000     0.04641000000000     0.22817000000000
C2     C      0.09783000000000     0.54641000000000     0.77183000000000
C2     C      0.59783000000000     0.95359000000000     0.77183000000000
C2     C      0.90217000000000     0.45359000000000     0.22817000000000
C3     C      0.45054000000000     0.96274000000000     0.28009000000000
C3     C      0.04946000000000     0.46274000000000     0.71991000000000
C3     C      0.54946000000000     0.03726000000000     0.71991000000000
C3     C      0.95054000000000     0.53726000000000     0.28009000000000
C4     C      0.54864000000000     0.97650000000000     0.27273000000000
C4     C      0.95136000000000     0.47650000000000     0.72727000000000
C4     C      0.45136000000000     0.02350000000000     0.72727000000000
C4     C      0.04864000000000     0.52350000000000     0.27273000000000
C5     C      0.59848000000000     0.07463000000000     0.21473000000000
C5     C      0.90152000000000     0.57463000000000     0.78527000000000
C5     C      0.40152000000000     0.92537000000000     0.78527000000000
C5     C      0.09848000000000     0.42537000000000     0.21473000000000
C6     C      0.54966000000000     0.15786000000000     0.16471000000000
C6     C      0.95034000000000     0.65786000000000     0.83529000000000
C6     C      0.45034000000000     0.84214000000000     0.83529000000000
C6     C      0.04966000000000     0.34214000000000     0.16471000000000
C7     C      0.45159000000000     0.14601000000000     0.16836000000000
C7     C      0.04841000000000     0.64601000000000     0.83164000000000
C7     C      0.54841000000000     0.85399000000000     0.83164000000000
C7     C      0.95159000000000     0.35399000000000     0.16836000000000
C8     C      0.40338000000000     0.23914000000000     0.11247000000000
C8     C      0.09662000000000     0.73914000000000     0.88753000000000
C8     C      0.59662000000000     0.76086000000000     0.88753000000000
C8     C      0.90338000000000     0.26086000000000     0.11247000000000
O9     O      0.26122000000000     0.07519000000000     0.14301000000000
O9     O      0.23878000000000     0.57519000000000     0.85699000000000
O9     O      0.73878000000000     0.92481000000000     0.85699000000000
O9     O      0.76122000000000     0.42481000000000     0.14301000000000
O10    O      0.24819000000000     0.94814000000000     0.35153000000000
O10    O      0.25181000000000     0.44814000000000     0.64847000000000
O10    O      0.75181000000000     0.05186000000000     0.64847000000000
O10    O      0.74819000000000     0.55186000000000     0.35153000000000
H11    H      0.41070000000000     0.88727000000000     0.32575000000000
H11    H      0.08930000000000     0.38727000000000     0.67425000000000
H11    H      0.58930000000000     0.11273000000000     0.67425000000000
H11    H      0.91070000000000     0.61273000000000     0.32575000000000
H12    H      0.58568000000000     0.91124000000000     0.31213000000000
H12    H      0.91432000000000     0.41124000000000     0.68787000000000
H12    H      0.41432000000000     0.08876000000000     0.68787000000000
H12    H      0.08568000000000     0.58876000000000     0.31213000000000
H13    H      0.67465000000000     0.08669000000000     0.20928000000000
H13    H      0.82535000000000     0.58669000000000     0.79072000000000
H13    H      0.32535000000000     0.91331000000000     0.79072000000000
H13    H      0.17465000000000     0.41331000000000     0.20928000000000
H14    H      0.58851000000000     0.23428000000000     0.12097000000000
H14    H      0.91149000000000     0.73428000000000     0.87903000000000
H14    H      0.41149000000000     0.76572000000000     0.87903000000000
H14    H      0.08851000000000     0.26572000000000     0.12097000000000
H15    H      0.32650000000000     0.25549000000000     0.21404000000000
H15    H      0.17350000000000     0.75549000000000     0.78596000000000
H15    H      0.67350000000000     0.74451000000000     0.78596000000000
H15    H      0.82650000000000     0.24451000000000     0.21404000000000
H16    H      0.39652000000000     0.22267000000000     0.98396000000000
H16    H      0.10348000000000     0.72267000000000     0.01604000000000
H16    H      0.60348000000000     0.77733000000000     0.01604000000000
H16    H      0.89652000000000     0.27733000000000     0.98396000000000
H17    H      0.44993000000000     0.31104000000000     0.09592000000000
H17    H      0.05007000000000     0.81104000000000     0.90408000000000
H17    H      0.55007000000000     0.68896000000000     0.90408000000000
H17    H      0.94993000000000     0.18896000000000     0.09592000000000
H18    H      0.18428000000000     0.93963000000000     0.33893000000000
H18    H      0.31572000000000     0.43963000000000     0.66107000000000
H18    H      0.81572000000000     0.06037000000000     0.66107000000000
H18    H      0.68428000000000     0.56037000000000     0.33893000000000
