data_default
_cell_volume           633.480925
_symmetry_space_group_name_H-M 'P 1'
_symmetry_Int_Tables_number 1
loop_
_symmetry_equiv_pos_site_id
_symmetry_equiv_pos_as_xyz
1 x,y,z
_cell_length_a        16.3788700000
_cell_length_b        10.7915800000
_cell_length_c        11.8757500000
_cell_angle_alpha       159.9130
_cell_angle_beta       101.6110
_cell_angle_gamma        70.2640
_cell_formula_units_Z 1
loop_
_atom_site_label
_atom_site_type_symbol
_atom_site_fract_x
_atom_site_fract_y
_atom_site_fract_z
N1     N      0.72933000000000     0.35845000000000     0.98178000000000
N1     N      0.27067000000000     0.64155000000000     0.01822000000000
C2     C      0.63828000000000     0.61566000000000     0.18288000000000
C2     C      0.36172000000000     0.38434000000000     0.81712000000000
N3     N      0.60568000000000     0.76953000000000     0.40912000000000
N3     N      0.39432000000000     0.23047000000000     0.59088000000000
N4     N      0.57618000000000     0.73666000000000     0.18417000000000
N4     N      0.42382000000000     0.26334000000000     0.81583000000000
C5     C      0.60816000000000     0.58549000000000     0.96170000000000
C5     C      0.39184000000000     0.41451000000000     0.03830000000000
C6     C      0.70143000000000     0.31600000000000     0.74065000000000
C6     C      0.29857000000000     0.68400000000000     0.25935000000000
H7     H      0.72772000000000     0.19274000000000     0.56029000000000
H7     H      0.27228000000000     0.80726000000000     0.43971000000000
C8     C      0.75929000000000     0.21257000000000     0.76267000000000
C8     C      0.24071000000000     0.78743000000000     0.23733000000000
H9     H      0.83268000000000     0.00445000000000     0.59860000000000
H9     H      0.16732000000000     0.99555000000000     0.40140000000000
C10    C      0.53841000000000     0.72190000000000     0.96445000000000
C10    C      0.46159000000000     0.27810000000000     0.03555000000000
H11    H      0.48190000000000     0.64209000000000     0.89947000000000
H11    H      0.51810000000000     0.35791000000000     0.10053000000000
H12    H      0.50810000000000     0.04923000000000     0.22716000000000
H12    H      0.49190000000000     0.95077000000000     0.77284000000000
H13    H      0.57043000000000     0.58444000000000     0.77606000000000
H13    H      0.42957000000000     0.41556000000000     0.22394000000000
H14    H      0.64954000000000     0.68775000000000     0.41736000000000
H14    H      0.35046000000000     0.31225000000000     0.58264000000000
H15    H      0.53827000000000     0.96257000000000     0.56447000000000
H15    H      0.46173000000000     0.03743000000000     0.43553000000000
C1     C      0.20069000000000     0.44946000000000     0.51538000000000
C1     C      0.79931000000000     0.55054000000000     0.48462000000000
C2     C      0.14012000000000     0.78756000000000     0.71277000000000
C2     C      0.85988000000000     0.21244000000000     0.28723000000000
C3     C      0.04406000000000     0.90198000000000     0.78223000000000
C3     C      0.95594000000000     0.09802000000000     0.21777000000000
C4     C      0.98478000000000     0.22453000000000     0.97478000000000
C4     C      0.01522000000000     0.77547000000000     0.02522000000000
C5     C      0.02160000000000     0.43209000000000     0.09623000000000
C5     C      0.97840000000000     0.56791000000000     0.90377000000000
C6     C      0.11729000000000     0.31485000000000     0.02387000000000
C6     C      0.88271000000000     0.68515000000000     0.97613000000000
C7     C      0.17852000000000     0.99520000000000     0.83494000000000
C7     C      0.82148000000000     0.00480000000000     0.16506000000000
C8     C      0.28104000000000     0.88463000000000     0.76628000000000
C8     C      0.71896000000000     0.11537000000000     0.23372000000000
O9     O      0.27566000000000     0.39648000000000     0.52837000000000
O9     O      0.72434000000000     0.60352000000000     0.47163000000000
O10    O      0.16230000000000     0.19596000000000     0.31182000000000
O10    O      0.83770000000000     0.80404000000000     0.68818000000000
H11    H      0.01657000000000     0.73670000000000     0.68463000000000
H11    H      0.98343000000000     0.26330000000000     0.31537000000000
H12    H      0.91059000000000     0.31234000000000     0.02891000000000
H12    H      0.08941000000000     0.68766000000000     0.97109000000000
H13    H      0.97634000000000     0.68242000000000     0.24481000000000
H13    H      0.02366000000000     0.31758000000000     0.75519000000000
H14    H      0.14563000000000     0.47557000000000     0.11683000000000
H14    H      0.85437000000000     0.52443000000000     0.88317000000000
H15    H      0.32281000000000     0.56269000000000     0.48901000000000
H15    H      0.67719000000000     0.43731000000000     0.51099000000000
H16    H      0.30421000000000     0.95610000000000     0.91353000000000
H16    H      0.69579000000000     0.04390000000000     0.08647000000000
H17    H      0.29524000000000     0.05005000000000     0.84379000000000
H17    H      0.70476000000000     0.94995000000000     0.15621000000000
H18    H      0.20501000000000     0.99862000000000     0.20692000000000
H18    H      0.79499000000000     0.00138000000000     0.79308000000000
