data_default
_cell_volume           596.691227
_symmetry_space_group_name_H-M 'P 1'
_symmetry_Int_Tables_number 1
loop_
_symmetry_equiv_pos_site_id
_symmetry_equiv_pos_as_xyz
1 x,y,z
_cell_length_a         7.5306970000
_cell_length_b         7.0289500000
_cell_length_c        12.0989700000
_cell_angle_alpha       108.9545
_cell_angle_beta        94.2726
_cell_angle_gamma        97.0256
_cell_formula_units_Z 1
loop_
_atom_site_label
_atom_site_type_symbol
_atom_site_fract_x
_atom_site_fract_y
_atom_site_fract_z
C1     C      0.10951200000000     0.75344500000000     0.42033200000000
C1     C      0.89048800000000     0.24655500000000     0.57966800000000
C2     C      0.04508500000000     0.76741800000000     0.52936600000000
C2     C      0.95491500000000     0.23258200000000     0.47063400000000
C3     C      0.86371300000000     0.69442400000000     0.53186700000000
C3     C      0.13628700000000     0.30557600000000     0.46813300000000
C4     C      0.74471100000000     0.60794000000000     0.42892000000000
C4     C      0.25528900000000     0.39206000000000     0.57108000000000
C5     C      0.80692000000000     0.59355700000000     0.32122800000000
C5     C      0.19308000000000     0.40644300000000     0.67877200000000
C6     C      0.98656000000000     0.66556800000000     0.31797300000000
C6     C      0.01344000000000     0.33443200000000     0.68202700000000
C7     C      0.16544000000000     0.85852800000000     0.64335600000000
C7     C      0.83456000000000     0.14147200000000     0.35664400000000
O1     O      0.08322800000000     0.85954300000000     0.73691400000000
O1     O      0.91677200000000     0.14045700000000     0.26308600000000
O2     O      0.32610900000000     0.92661800000000     0.65043000000000
O2     O      0.67389100000000     0.07338200000000     0.34957000000000
H1     H      0.16981500000000     0.92270500000000     0.81245700000000
H1     H      0.83018500000000     0.07729500000000     0.18754300000000
H4     H      0.60506300000000     0.55242700000000     0.43271600000000
H4     H      0.39493700000000     0.44757300000000     0.56728400000000
H5     H      0.71604300000000     0.52647100000000     0.23978900000000
H5     H      0.28395700000000     0.47352900000000     0.76021100000000
H6     H      0.03387700000000     0.65374400000000     0.23366400000000
H6     H      0.96612300000000     0.34625600000000     0.76633600000000
H8     H      0.81792900000000     0.70693700000000     0.61635100000000
H8     H      0.18207100000000     0.29306300000000     0.38364900000000
C12    C      0.30159300000000     0.82722700000000     0.40813900000000
C12    C      0.69840700000000     0.17277300000000     0.59186100000000
H9     H      0.34088900000000     0.98980600000000     0.45685700000000
H9     H      0.65911100000000     0.01019400000000     0.54314300000000
H10    H      0.39702700000000     0.75082200000000     0.44415600000000
H10    H      0.60297300000000     0.24917800000000     0.55584400000000
H11    H      0.31727100000000     0.79936700000000     0.31531400000000
H11    H      0.68272900000000     0.20063300000000     0.68468600000000
N1     N      0.28089100000000     0.00718800000000     0.93776400000000
N1     N      0.71910900000000     0.99281200000000     0.06223600000000
C8     C      0.36809200000000     0.20070000000000     0.96671400000000
C8     C      0.63190800000000     0.79930000000000     0.03328600000000
N2     N      0.40806300000000     0.33553600000000     0.07768700000000
N2     N      0.59193700000000     0.66446400000000     0.92231300000000
C9     C      0.35601300000000     0.26829100000000     0.16262600000000
C9     C      0.64398700000000     0.73170900000000     0.83737400000000
C10    C      0.26553700000000     0.07215900000000     0.14243500000000
C10    C      0.73446300000000     0.92784100000000     0.85756500000000
C11    C      0.22986000000000     0.94339000000000     0.02558000000000
C11    C      0.77014000000000     0.05661000000000     0.97442000000000
N3     N      0.41881600000000     0.26365400000000     0.87848000000000
N3     N      0.58118400000000     0.73634600000000     0.12152000000000
H2     H      0.48347100000000     0.40708000000000     0.89983200000000
H2     H      0.51652900000000     0.59292000000000     0.10016800000000
H3     H      0.39219600000000     0.16844100000000     0.79310700000000
H3     H      0.60780400000000     0.83155900000000     0.20689300000000
H7     H      0.22506600000000     0.02245000000000     0.21393500000000
H7     H      0.77493400000000     0.97755000000000     0.78606500000000
H12    H      0.38801600000000     0.37647900000000     0.25196500000000
H12    H      0.61198400000000     0.62352100000000     0.74803500000000
C13    C      0.13347100000000     0.72816400000000     0.99079700000000
C13    C      0.86652900000000     0.27183600000000     0.00920300000000
H13    H      0.01068800000000     0.70692900000000     0.93090900000000
H13    H      0.98931200000000     0.29307100000000     0.06909100000000
H14    H      0.21848500000000     0.62091100000000     0.94346200000000
H14    H      0.78151500000000     0.37908900000000     0.05653800000000
H15    H      0.09734700000000     0.68988600000000     0.06759800000000
H15    H      0.90265300000000     0.31011400000000     0.93240200000000
