data_default
_cell_volume          1231.259259
_symmetry_space_group_name_H-M 'P 1'
_symmetry_Int_Tables_number 1
loop_
_symmetry_equiv_pos_site_id
_symmetry_equiv_pos_as_xyz
1 x,y,z
_cell_length_a        13.9280080000
_cell_length_b        22.1921890000
_cell_length_c         4.0167700000
_cell_angle_alpha        90.0000
_cell_angle_beta        97.3840
_cell_angle_gamma        90.0000
_cell_formula_units_Z 1
loop_
_atom_site_label
_atom_site_type_symbol
_atom_site_fract_x
_atom_site_fract_y
_atom_site_fract_z
C1     C      0.07723900000000     0.23760800000000     0.87785400000000
C1     C      0.42276100000000     0.73760800000000     0.12214600000000
C1     C      0.92276100000000     0.76239200000000     0.12214600000000
C1     C      0.57723900000000     0.26239200000000     0.87785400000000
C2     C      0.06793700000000     0.18091200000000     0.71456900000000
C2     C      0.43206300000000     0.68091200000000     0.28543100000000
C2     C      0.93206300000000     0.81908800000000     0.28543100000000
C2     C      0.56793700000000     0.31908800000000     0.71456900000000
C3     C      0.98010600000000     0.16504100000000     0.52221800000000
C3     C      0.51989400000000     0.66504100000000     0.47778200000000
C3     C      0.01989400000000     0.83495900000000     0.47778200000000
C3     C      0.48010600000000     0.33495900000000     0.52221800000000
C4     C      0.90130100000000     0.20400700000000     0.48784800000000
C4     C      0.59869900000000     0.70400700000000     0.51215200000000
C4     C      0.09869900000000     0.79599300000000     0.51215200000000
C4     C      0.40130100000000     0.29599300000000     0.48784800000000
C5     C      0.90979400000000     0.25988900000000     0.64763000000000
C5     C      0.59020600000000     0.75988900000000     0.35237000000000
C5     C      0.09020600000000     0.74011100000000     0.35237000000000
C5     C      0.40979400000000     0.24011100000000     0.64763000000000
C6     C      0.99662900000000     0.27597600000000     0.83882600000000
C6     C      0.50337100000000     0.77597600000000     0.16117400000000
C6     C      0.00337100000000     0.72402400000000     0.16117400000000
C6     C      0.49662900000000     0.22402400000000     0.83882600000000
C7     C      0.14963700000000     0.13684300000000     0.74066100000000
C7     C      0.35036300000000     0.63684300000000     0.25933900000000
C7     C      0.85036300000000     0.86315700000000     0.25933900000000
C7     C      0.64963700000000     0.36315700000000     0.74066100000000
O1     O      0.12853900000000     0.08601300000000     0.57231800000000
O1     O      0.37146100000000     0.58601300000000     0.42768200000000
O1     O      0.87146100000000     0.91398700000000     0.42768200000000
O1     O      0.62853900000000     0.41398700000000     0.57231800000000
O2     O      0.22932300000000     0.14651600000000     0.90289800000000
O2     O      0.27067700000000     0.64651600000000     0.09710200000000
O2     O      0.77067700000000     0.85348400000000     0.09710200000000
O2     O      0.72932300000000     0.35348400000000     0.90289800000000
H1     H      0.18600800000000     0.05736100000000     0.59676600000000
H1     H      0.31399200000000     0.55736100000000     0.40323400000000
H1     H      0.81399200000000     0.94263900000000     0.40323400000000
H1     H      0.68600800000000     0.44263900000000     0.59676600000000
H4     H      0.83405400000000     0.19090400000000     0.33810400000000
H4     H      0.66594600000000     0.69090400000000     0.66189600000000
H4     H      0.16594600000000     0.80909600000000     0.66189600000000
H4     H      0.33405400000000     0.30909600000000     0.33810400000000
H5     H      0.84904200000000     0.29097800000000     0.62386000000000
H5     H      0.65095800000000     0.79097800000000     0.37614000000000
H5     H      0.15095800000000     0.70902200000000     0.37614000000000
H5     H      0.34904200000000     0.20902200000000     0.62386000000000
H6     H      0.00260300000000     0.31961200000000     0.96246300000000
H6     H      0.49739700000000     0.81961200000000     0.03753700000000
H6     H      0.99739700000000     0.68038800000000     0.03753700000000
H6     H      0.50260300000000     0.18038800000000     0.96246300000000
H8     H      0.97491400000000     0.12144700000000     0.40003500000000
H8     H      0.52508600000000     0.62144700000000     0.59996500000000
H8     H      0.02508600000000     0.87855300000000     0.59996500000000
H8     H      0.47491400000000     0.37855300000000     0.40003500000000
C12    C      0.16832300000000     0.25892200000000     0.08994200000000
C12    C      0.33167700000000     0.75892200000000     0.91005800000000
C12    C      0.83167700000000     0.74107800000000     0.91005800000000
C12    C      0.66832300000000     0.24107800000000     0.08994200000000
H9     H      0.18963500000000     0.22852800000000     0.30061900000000
H9     H      0.31036500000000     0.72852800000000     0.69938100000000
H9     H      0.81036500000000     0.77147200000000     0.69938100000000
H9     H      0.68963500000000     0.27147200000000     0.30061900000000
H10    H      0.22978800000000     0.26022100000000     0.94611500000000
H10    H      0.27021200000000     0.76022100000000     0.05388500000000
H10    H      0.77021200000000     0.73977900000000     0.05388500000000
H10    H      0.72978800000000     0.23977900000000     0.94611500000000
H11    H      0.15716300000000     0.30401600000000     0.18788600000000
H11    H      0.34283700000000     0.80401600000000     0.81211400000000
H11    H      0.84283700000000     0.69598400000000     0.81211400000000
H11    H      0.65716300000000     0.19598400000000     0.18788600000000
N1     N      0.26053100000000     0.00469300000000     0.58252200000000
N1     N      0.23946900000000     0.50469300000000     0.41747800000000
N1     N      0.73946900000000     0.99530700000000     0.41747800000000
N1     N      0.76053100000000     0.49530700000000     0.58252200000000
C8     C      0.35265500000000     0.00133200000000     0.73954800000000
C8     C      0.14734500000000     0.50133200000000     0.26045200000000
C8     C      0.64734500000000     0.99866800000000     0.26045200000000
C8     C      0.85265500000000     0.49866800000000     0.73954800000000
N2     N      0.41463100000000     0.95522400000000     0.70873200000000
N2     N      0.08536900000000     0.45522400000000     0.29126800000000
N2     N      0.58536900000000     0.04477600000000     0.29126800000000
N2     N      0.91463100000000     0.54477600000000     0.70873200000000
C9     C      0.38030200000000     0.91060400000000     0.50745800000000
C9     C      0.11969800000000     0.41060400000000     0.49254200000000
C9     C      0.61969800000000     0.08939600000000     0.49254200000000
C9     C      0.88030200000000     0.58939600000000     0.50745800000000
C10    C      0.28670700000000     0.90960100000000     0.33417500000000
C10    C      0.21329300000000     0.40960100000000     0.66582500000000
C10    C      0.71329300000000     0.09039900000000     0.66582500000000
C10    C      0.78670700000000     0.59039900000000     0.33417500000000
C11    C      0.22778600000000     0.95887600000000     0.38039200000000
C11    C      0.27221400000000     0.45887600000000     0.61960800000000
C11    C      0.77221400000000     0.04112400000000     0.61960800000000
C11    C      0.72778600000000     0.54112400000000     0.38039200000000
N3     N      0.38500700000000     0.04730500000000     0.94143800000000
N3     N      0.11499300000000     0.54730500000000     0.05856200000000
N3     N      0.61499300000000     0.95269500000000     0.05856200000000
N3     N      0.88500700000000     0.45269500000000     0.94143800000000
H2     H      0.45329000000000     0.04486400000000     0.05798300000000
H2     H      0.04671000000000     0.54486400000000     0.94201700000000
H2     H      0.54671000000000     0.95513600000000     0.94201700000000
H2     H      0.95329000000000     0.45513600000000     0.05798300000000
H3     H      0.34141300000000     0.08324300000000     0.97402400000000
H3     H      0.15858700000000     0.58324300000000     0.02597600000000
H3     H      0.65858700000000     0.91675700000000     0.02597600000000
H3     H      0.84141300000000     0.41675700000000     0.97402400000000
H7     H      0.26111800000000     0.87241800000000     0.17193400000000
H7     H      0.23888200000000     0.37241800000000     0.82806600000000
H7     H      0.73888200000000     0.12758200000000     0.82806600000000
H7     H      0.76111800000000     0.62758200000000     0.17193400000000
H12    H      0.43002300000000     0.87346500000000     0.48227400000000
H12    H      0.06997700000000     0.37346500000000     0.51772600000000
H12    H      0.56997700000000     0.12653500000000     0.51772600000000
H12    H      0.93002300000000     0.62653500000000     0.48227400000000
C13    C      0.12538900000000     0.96386200000000     0.20973500000000
C13    C      0.37461100000000     0.46386200000000     0.79026500000000
C13    C      0.87461100000000     0.03613800000000     0.79026500000000
C13    C      0.62538900000000     0.53613800000000     0.20973500000000
H13    H      0.07496400000000     0.96781100000000     0.39639200000000
H13    H      0.42503600000000     0.46781100000000     0.60360800000000
H13    H      0.92503600000000     0.03218900000000     0.60360800000000
H13    H      0.57496400000000     0.53218900000000     0.39639200000000
H14    H      0.11678500000000     0.00455700000000     0.05473300000000
H14    H      0.38321500000000     0.50455700000000     0.94526700000000
H14    H      0.88321500000000     0.99544300000000     0.94526700000000
H14    H      0.61678500000000     0.49544300000000     0.05473300000000
H15    H      0.10516000000000     0.92475300000000     0.05120700000000
H15    H      0.39484000000000     0.42475300000000     0.94879300000000
H15    H      0.89484000000000     0.07524700000000     0.94879300000000
H15    H      0.60516000000000     0.57524700000000     0.05120700000000
