data_default
_cell_volume           627.484193
_symmetry_space_group_name_H-M 'P 1'
_symmetry_Int_Tables_number 1
loop_
_symmetry_equiv_pos_site_id
_symmetry_equiv_pos_as_xyz
1 x,y,z
_cell_length_a         4.0386000000
_cell_length_b        11.7917000000
_cell_length_c        13.9612000000
_cell_angle_alpha       104.6800
_cell_angle_beta        96.1990
_cell_angle_gamma        99.0560
_cell_formula_units_Z 1
loop_
_atom_site_label
_atom_site_type_symbol
_atom_site_fract_x
_atom_site_fract_y
_atom_site_fract_z
O1     O      0.58613000000000     0.70953000000000     0.73948200000000
O1     O      0.41387000000000     0.29047000000000     0.26051800000000
H1     H      0.50013000000000     0.74517000000000     0.69723600000000
H1     H      0.49987000000000     0.25483000000000     0.30276400000000
O2     O      0.88087000000000     0.89861300000000     0.79681200000000
O2     O      0.11913000000000     0.10138700000000     0.20318800000000
C1     C      0.01294100000000     0.75761500000000     0.88542000000000
C1     C      0.98705900000000     0.24238500000000     0.11458000000000
C2     C      0.19031000000000     0.85127600000000     0.96744400000000
C2     C      0.80969000000000     0.14872400000000     0.03255600000000
H2     H      0.17448200000000     0.93382060000000     0.96645510000000
H2     H      0.82551800000000     0.06617940000000     0.03354490000000
C3     C      0.38335500000000     0.82919900000000     0.04692100000000
C3     C      0.61664500000000     0.17080100000000     0.95307900000000
H3     H      0.50400400000000     0.89622100000000     0.10443100000000
H3     H      0.49599600000000     0.10377900000000     0.89556900000000
C4     C      0.40667200000000     0.71154200000000     0.04399400000000
C4     C      0.59332800000000     0.28845800000000     0.95600600000000
H4     H      0.54468600000000     0.69393300000000     0.09956600000000
H4     H      0.45531400000000     0.30606700000000     0.90043400000000
C5     C      0.23594300000000     0.61832000000000     0.96216950000000
C5     C      0.76405700000000     0.38168000000000     0.03783050000000
H5     H      0.25631700000000     0.53516900000000     0.96024150000000
H5     H      0.74368300000000     0.46483100000000     0.03975850000000
C6     C      0.03479000000000     0.63780200000000     0.88161400000000
C6     C      0.96521000000000     0.36219800000000     0.11838600000000
C7     C      0.82782000000000     0.79706500000000     0.80523300000000
C7     C      0.17218000000000     0.20293500000000     0.19476700000000
C8     C      0.86456000000000     0.53094500000000     0.79623300000000
C8     C      0.13544000000000     0.46905500000000     0.20376700000000
H6     H      0.93606000000000     0.53780600000000     0.73138100000000
H6     H      0.06394000000000     0.46219400000000     0.26861900000000
H7     H      0.92503000000000     0.45676800000000     0.80896000000000
H7     H      0.07497000000000     0.54323200000000     0.19104000000000
H8     H      0.61282000000000     0.52216700000000     0.78702200000000
H8     H      0.38718000000000     0.47783300000000     0.21297800000000
N1     N      0.27552000000000     0.76275900000000     0.59934800000000
N1     N      0.72448000000000     0.23724100000000     0.40065200000000
N2     N      0.20281000000000     0.86116700000000     0.46860500000000
N2     N      0.79719000000000     0.13883300000000     0.53139500000000
N3     N      0.57353000000000     0.95273480000000     0.61595100000000
N3     N      0.42647000000000     0.04726520000000     0.38404900000000
H9     H      0.65800000000000     0.00794410000000     0.58494400000000
H9     H      0.34200000000000     0.99205590000000     0.41505600000000
H10    H      0.70388000000000     0.94387130000000     0.67017400000000
H10    H      0.29612000000000     0.05612870000000     0.32982600000000
C9     C      0.34369000000000     0.85486200000000     0.55869100000000
C9     C      0.65631000000000     0.14513800000000     0.44130900000000
C10    C      0.96798000000000     0.76688300000000     0.41380200000000
C10    C      0.03202000000000     0.23311700000000     0.58619800000000
C11    C      0.87658000000000     0.66694400000000     0.44904500000000
C11    C      0.12342000000000     0.33305600000000     0.55095500000000
H11    H      0.70408000000000     0.59706300000000     0.40916700000000
H11    H      0.29592000000000     0.40293700000000     0.59083300000000
C12    C      0.04160000000000     0.67015200000000     0.54304700000000
C12    C      0.95840000000000     0.32984800000000     0.45695300000000
H12    H      0.98913000000000     0.60181200000000     0.57194700000000
H12    H      0.01087000000000     0.39818800000000     0.42805300000000
C13    C      0.81176000000000     0.77447300000000     0.31363700000000
C13    C      0.18824000000000     0.22552700000000     0.68636300000000
H13    H      0.70106000000000     0.84560300000000     0.32245800000000
H13    H      0.29894000000000     0.15439700000000     0.67754200000000
H14    H      0.64023000000000     0.70151500000000     0.27754500000000
H14    H      0.35977000000000     0.29848500000000     0.72245500000000
H15    H      0.99211000000000     0.78569200000000     0.27143100000000
H15    H      0.00789000000000     0.21430800000000     0.72856900000000
