data_default
_cell_volume          1252.270437
_symmetry_space_group_name_H-M 'P 1'
_symmetry_Int_Tables_number 1
loop_
_symmetry_equiv_pos_site_id
_symmetry_equiv_pos_as_xyz
1 x,y,z
_cell_length_a         7.2795000000
_cell_length_b        13.6699000000
_cell_length_c        12.6695000000
_cell_angle_alpha        90.0000
_cell_angle_beta        96.6460
_cell_angle_gamma        90.0000
_cell_formula_units_Z 1
loop_
_atom_site_label
_atom_site_type_symbol
_atom_site_fract_x
_atom_site_fract_y
_atom_site_fract_z
N11    N      0.79860000000000     0.05629000000000     0.04985000000000
N11    N      0.70140000000000     0.55629000000000     0.45015000000000
N11    N      0.20140000000000     0.94371000000000     0.95015000000000
N11    N      0.29860000000000     0.44371000000000     0.54985000000000
C12    C      0.86440000000000     0.01550000000000     0.14345000000000
C12    C      0.63560000000000     0.51550000000000     0.35655000000000
C12    C      0.13560000000000     0.98450000000000     0.85655000000000
C12    C      0.36440000000000     0.48450000000000     0.64345000000000
N12    N      0.03610000000000     0.97961000000000     0.15313000000000
N12    N      0.46390000000000     0.47961000000000     0.34687000000000
N12    N      0.96390000000000     0.02039000000000     0.84687000000000
N12    N      0.53610000000000     0.52039000000000     0.65313000000000
H12A   H      0.07800000000000     0.94690000000000     0.21450000000000
H12A   H      0.42200000000000     0.44690000000000     0.28550000000000
H12A   H      0.92200000000000     0.05310000000000     0.78550000000000
H12A   H      0.57800000000000     0.55310000000000     0.71450000000000
H12B   H      0.08900000000000     0.97070000000000     0.09590000000000
H12B   H      0.41100000000000     0.47070000000000     0.40410000000000
H12B   H      0.91100000000000     0.02930000000000     0.90410000000000
H12B   H      0.58900000000000     0.52930000000000     0.59590000000000
N13    N      0.76846000000000     0.00838000000000     0.22833000000000
N13    N      0.73154000000000     0.50838000000000     0.27167000000000
N13    N      0.23154000000000     0.99162000000000     0.77167000000000
N13    N      0.26846000000000     0.49162000000000     0.72833000000000
C14    C      0.59740000000000     0.04538000000000     0.21942000000000
C14    C      0.90260000000000     0.54538000000000     0.28058000000000
C14    C      0.40260000000000     0.95462000000000     0.78058000000000
C14    C      0.09740000000000     0.45462000000000     0.71942000000000
C15    C      0.52350000000000     0.09168000000000     0.12732000000000
C15    C      0.97650000000000     0.59168000000000     0.37268000000000
C15    C      0.47650000000000     0.90832000000000     0.87268000000000
C15    C      0.02350000000000     0.40832000000000     0.62732000000000
H15A   H      0.40550000000000     0.12040000000000     0.12140000000000
H15A   H      0.09450000000000     0.62040000000000     0.37860000000000
H15A   H      0.59450000000000     0.87960000000000     0.87860000000000
H15A   H      0.90550000000000     0.37960000000000     0.62140000000000
C16    C      0.62990000000000     0.09386000000000     0.04499000000000
C16    C      0.87010000000000     0.59386000000000     0.45501000000000
C16    C      0.37010000000000     0.90614000000000     0.95501000000000
C16    C      0.12990000000000     0.40614000000000     0.54499000000000
H16A   H      0.58030000000000     0.12380000000000     0.98120000000000
H16A   H      0.91970000000000     0.62380000000000     0.51880000000000
H16A   H      0.41970000000000     0.87620000000000     0.01880000000000
H16A   H      0.08030000000000     0.37620000000000     0.48120000000000
C17    C      0.49030000000000     0.03200000000000     0.31211000000000
C17    C      0.00970000000000     0.53200000000000     0.18789000000000
C17    C      0.50970000000000     0.96800000000000     0.68789000000000
C17    C      0.99030000000000     0.46800000000000     0.81211000000000
H17A   H      0.56620000000000     0.99800000000000     0.36850000000000
H17A   H      0.93380000000000     0.49800000000000     0.13150000000000
H17A   H      0.43380000000000     0.00200000000000     0.63150000000000
H17A   H      0.06620000000000     0.50200000000000     0.86850000000000
H17B   H      0.38000000000000     0.99380000000000     0.29040000000000
H17B   H      0.12000000000000     0.49380000000000     0.20960000000000
H17B   H      0.62000000000000     0.00620000000000     0.70960000000000
H17B   H      0.88000000000000     0.50620000000000     0.79040000000000
H17C   H      0.45510000000000     0.09540000000000     0.33750000000000
H17C   H      0.04490000000000     0.59540000000000     0.16250000000000
H17C   H      0.54490000000000     0.90460000000000     0.66250000000000
H17C   H      0.95510000000000     0.40460000000000     0.83750000000000
H17D   H      0.37240000000000     0.06540000000000     0.29840000000000
H17D   H      0.12760000000000     0.56540000000000     0.20160000000000
H17D   H      0.62760000000000     0.93460000000000     0.70160000000000
H17D   H      0.87240000000000     0.43460000000000     0.79840000000000
H17E   H      0.55970000000000     0.05910000000000     0.37540000000000
H17E   H      0.94030000000000     0.55910000000000     0.12460000000000
H17E   H      0.44030000000000     0.94090000000000     0.62460000000000
H17E   H      0.05970000000000     0.44090000000000     0.87540000000000
H17F   H      0.46920000000000     0.96280000000000     0.32270000000000
H17F   H      0.03080000000000     0.46280000000000     0.17730000000000
H17F   H      0.53080000000000     0.03720000000000     0.67730000000000
H17F   H      0.96920000000000     0.53720000000000     0.82270000000000
C21    C      0.06230000000000     0.82593000000000     0.52929000000000
C21    C      0.43770000000000     0.32593000000000     0.97071000000000
C21    C      0.93770000000000     0.17407000000000     0.47071000000000
C21    C      0.56230000000000     0.67407000000000     0.02929000000000
C22    C      0.22880000000000     0.77798000000000     0.56317000000000
C22    C      0.27120000000000     0.27798000000000     0.93683000000000
C22    C      0.77120000000000     0.22202000000000     0.43683000000000
C22    C      0.72880000000000     0.72202000000000     0.06317000000000
C23    C      0.24670000000000     0.73560000000000     0.66401000000000
C23    C      0.25330000000000     0.23560000000000     0.83599000000000
C23    C      0.75330000000000     0.26440000000000     0.33599000000000
C23    C      0.74670000000000     0.76440000000000     0.16401000000000
H23A   H      0.35850000000000     0.70460000000000     0.68920000000000
H23A   H      0.14150000000000     0.20460000000000     0.81080000000000
H23A   H      0.64150000000000     0.29540000000000     0.31080000000000
H23A   H      0.85850000000000     0.79540000000000     0.18920000000000
C24    C      0.10650000000000     0.73768000000000     0.72759000000000
C24    C      0.39350000000000     0.23768000000000     0.77241000000000
C24    C      0.89350000000000     0.26232000000000     0.27241000000000
C24    C      0.60650000000000     0.76232000000000     0.22759000000000
H24A   H      0.12270000000000     0.70770000000000     0.79480000000000
H24A   H      0.37730000000000     0.20770000000000     0.70520000000000
H24A   H      0.87730000000000     0.29230000000000     0.20520000000000
H24A   H      0.62270000000000     0.79230000000000     0.29480000000000
C25    C      0.94290000000000     0.78332000000000     0.69346000000000
C25    C      0.55710000000000     0.28332000000000     0.80654000000000
C25    C      0.05710000000000     0.21668000000000     0.30654000000000
C25    C      0.44290000000000     0.71668000000000     0.19346000000000
H25A   H      0.84590000000000     0.78420000000000     0.73640000000000
H25A   H      0.65410000000000     0.28420000000000     0.76360000000000
H25A   H      0.15410000000000     0.21580000000000     0.26360000000000
H25A   H      0.34590000000000     0.71580000000000     0.23640000000000
C26    C      0.92230000000000     0.82809000000000     0.59511000000000
C26    C      0.57770000000000     0.32809000000000     0.90489000000000
C26    C      0.07770000000000     0.17191000000000     0.40489000000000
C26    C      0.42230000000000     0.67191000000000     0.09511000000000
H26A   H      0.81110000000000     0.86070000000000     0.57220000000000
H26A   H      0.68890000000000     0.36070000000000     0.92780000000000
H26A   H      0.18890000000000     0.13930000000000     0.42780000000000
H26A   H      0.31110000000000     0.63930000000000     0.07220000000000
C27    C      0.02730000000000     0.87447000000000     0.42353000000000
C27    C      0.47270000000000     0.37447000000000     0.07647000000000
C27    C      0.97270000000000     0.12553000000000     0.57647000000000
C27    C      0.52730000000000     0.62553000000000     0.92353000000000
O27    O      0.87192000000000     0.92383000000000     0.41108000000000
O27    O      0.62808000000000     0.42383000000000     0.08892000000000
O27    O      0.12808000000000     0.07617000000000     0.58892000000000
O27    O      0.37192000000000     0.57617000000000     0.91108000000000
H27    H      0.84800000000000     0.95460000000000     0.34110000000000
H27    H      0.65200000000000     0.45460000000000     0.15890000000000
H27    H      0.15200000000000     0.04540000000000     0.65890000000000
H27    H      0.34800000000000     0.54540000000000     0.84110000000000
O28    O      0.12949000000000     0.86829000000000     0.35444000000000
O28    O      0.37051000000000     0.36829000000000     0.14556000000000
O28    O      0.87051000000000     0.13171000000000     0.64556000000000
O28    O      0.62949000000000     0.63171000000000     0.85444000000000
C28    C      0.38630000000000     0.77007000000000     0.49849000000000
C28    C      0.11370000000000     0.27007000000000     0.00151000000000
C28    C      0.61370000000000     0.22993000000000     0.50151000000000
C28    C      0.88630000000000     0.72993000000000     0.99849000000000
H28A   H      0.48650000000000     0.73400000000000     0.53810000000000
H28A   H      0.01350000000000     0.23400000000000     0.96190000000000
H28A   H      0.51350000000000     0.26600000000000     0.46190000000000
H28A   H      0.98650000000000     0.76600000000000     0.03810000000000
H28B   H      0.42900000000000     0.83510000000000     0.48260000000000
H28B   H      0.07100000000000     0.33510000000000     0.01740000000000
H28B   H      0.57100000000000     0.16490000000000     0.51740000000000
H28B   H      0.92900000000000     0.66490000000000     0.98260000000000
H28C   H      0.34620000000000     0.73600000000000     0.43270000000000
H28C   H      0.15380000000000     0.23600000000000     0.06730000000000
H28C   H      0.65380000000000     0.26400000000000     0.56730000000000
H28C   H      0.84620000000000     0.76400000000000     0.93270000000000
