data_default
_cell_volume           581.573957
_symmetry_space_group_name_H-M 'P 1'
_symmetry_Int_Tables_number 1
loop_
_symmetry_equiv_pos_site_id
_symmetry_equiv_pos_as_xyz
1 x,y,z
_cell_length_a        17.8487000000
_cell_length_b        14.0581000000
_cell_length_c        20.0384000000
_cell_angle_alpha        23.1291
_cell_angle_beta        20.8409
_cell_angle_gamma        20.3011
_cell_formula_units_Z 1
loop_
_atom_site_label
_atom_site_type_symbol
_atom_site_fract_x
_atom_site_fract_y
_atom_site_fract_z
C1     C      0.85058000000000     0.33572000000000     0.33872000000000
C1     C      0.14942000000000     0.66428000000000     0.66128000000000
N1     N      0.73369000000000     0.52820000000000     0.35964000000000
N1     N      0.26631000000000     0.47180000000000     0.64036000000000
C2     C      0.59178000000000     0.48125000000000     0.54735000000000
C2     C      0.40822000000000     0.51875000000000     0.45265000000000
C3     C      0.57464000000000     0.24900000000000     0.69976000000000
C3     C      0.42536000000000     0.75100000000000     0.30024000000000
C4     C      0.70673000000000     0.06677000000000     0.65540000000000
C4     C      0.29327000000000     0.93323000000000     0.34460000000000
N2     N      0.84883000000000     0.10815000000000     0.47038000000000
N2     N      0.15117000000000     0.89185000000000     0.52962000000000
H1     H      0.49195000000000     0.63355000000000     0.57320000000000
H1     H      0.50805000000000     0.36645000000000     0.42680000000000
H2     H      0.46049000000000     0.20878000000000     0.85293000000000
H2     H      0.53951000000000     0.79122000000000     0.14707000000000
C5     C      0.68763000000000     0.81428000000000     0.82170000000000
C5     C      0.31237000000000     0.18572000000000     0.17830000000000
H3     H      0.85818000000000     0.64055000000000     0.76644000000000
H3     H      0.14182000000000     0.35945000000000     0.23356000000000
H4     H      0.66871000000000     0.72946000000000     0.93927000000000
H4     H      0.33129000000000     0.27054000000000     0.06073000000000
H5     H      0.52204000000000     0.88582000000000     0.88252000000000
H5     H      0.47796000000000     0.11418000000000     0.11748000000000
N3     N      0.98615000000000     0.38265000000000     0.15596000000000
N3     N      0.01385000000000     0.61735000000000     0.84404000000000
H6     H      0.95504000000000     0.33901000000000     0.16340000000000
H6     H      0.04496000000000     0.66099000000000     0.83660000000000
H7     H      0.93910000000000     0.58743000000000     0.07167000000000
H7     H      0.06090000000000     0.41257000000000     0.92833000000000
C1     C      0.62495000000000     0.75373000000000     0.72825000000000
C1     C      0.37505000000000     0.24627000000000     0.27175000000000
C2     C      0.78901000000000     0.45331000000000     0.79482000000000
C2     C      0.21099000000000     0.54669000000000     0.20518000000000
C3     C      0.86792000000000     0.26005000000000     0.80009000000000
C3     C      0.13208000000000     0.73995000000000     0.19991000000000
C4     C      0.78601000000000     0.37065000000000     0.73201000000000
C4     C      0.21399000000000     0.62935000000000     0.26799000000000
C5     C      0.61939000000000     0.67463000000000     0.66618000000000
C5     C      0.38061000000000     0.32537000000000     0.33382000000000
C6     C      0.53716000000000     0.86415000000000     0.66654000000000
C6     C      0.46284000000000     0.13585000000000     0.33346000000000
H1     H      0.56218000000000     0.90198000000000     0.72712000000000
H1     H      0.43782000000000     0.09802000000000     0.27288000000000
H2     H      0.85241000000000     0.36904000000000     0.84656000000000
H2     H      0.14759000000000     0.63096000000000     0.15344000000000
H3     H      0.55003000000000     0.76596000000000     0.61559000000000
H3     H      0.44997000000000     0.23404000000000     0.38441000000000
H4     H      0.40448000000000     0.09884000000000     0.61842000000000
H4     H      0.59552000000000     0.90116000000000     0.38158000000000
C7     C      0.87290000000000     0.17550000000000     0.72500000000000
C7     C      0.12710000000000     0.82450000000000     0.27500000000000
O1     O      0.99749000000000     0.91044000000000     0.79218000000000
O1     O      0.00251000000000     0.08956000000000     0.20782000000000
O2     O      0.80261000000000     0.30286000000000     0.64383000000000
O2     O      0.19739000000000     0.69714000000000     0.35617000000000
H5     H      0.91490000000000     0.13311000000000     0.62998000000000
H5     H      0.08510000000000     0.86689000000000     0.37002000000000
C8     C      0.04216000000000     0.93615000000000     0.87989000000000
C8     C      0.95784000000000     0.06385000000000     0.12011000000000
H6     H      0.22020000000000     0.83563000000000     0.76890000000000
H6     H      0.77980000000000     0.16437000000000     0.23110000000000
H7     H      0.08757000000000     0.89841000000000     0.91947000000000
H7     H      0.91243000000000     0.10159000000000     0.08053000000000
H8     H      0.94986000000000     0.82585000000000     0.01435000000000
H8     H      0.05014000000000     0.17415000000000     0.98565000000000
