data_default
_cell_volume           590.907662
_symmetry_space_group_name_H-M 'P 1'
_symmetry_Int_Tables_number 1
loop_
_symmetry_equiv_pos_site_id
_symmetry_equiv_pos_as_xyz
1 x,y,z
_cell_length_a        29.8747000000
_cell_length_b         8.0366000000
_cell_length_c         9.8772000000
_cell_angle_alpha       137.4380
_cell_angle_beta       157.6760
_cell_angle_gamma        41.9315
_cell_formula_units_Z 1
loop_
_atom_site_label
_atom_site_type_symbol
_atom_site_fract_x
_atom_site_fract_y
_atom_site_fract_z
C1     C      0.97312000000000     0.38935000000000     0.15171000000000
C1     C      0.02688000000000     0.61065000000000     0.84829000000000
N1     N      0.07235000000000     0.31558000000000     0.45766000000000
N1     N      0.92765000000000     0.68442000000000     0.54234000000000
C2     C      0.16120000000000     0.14759000000000     0.54440000000000
C2     C      0.83880000000000     0.85241000000000     0.45560000000000
C3     C      0.14589000000000     0.07169000000000     0.32650000000000
C3     C      0.85411000000000     0.92831000000000     0.67350000000000
C4     C      0.03893000000000     0.17256000000000     0.02284000000000
C4     C      0.96107000000000     0.82744000000000     0.97716000000000
N2     N      0.94774000000000     0.33205000000000     0.92336000000000
N2     N      0.05226000000000     0.66795000000000     0.07664000000000
H1     H      0.24502000000000     0.07642000000000     0.79312000000000
H1     H      0.75498000000000     0.92358000000000     0.20688000000000
H2     H      0.21838000000000     0.93925000000000     0.39808000000000
H2     H      0.78162000000000     0.06075000000000     0.60192000000000
C5     C      0.02232000000000     0.09703000000000     0.78896000000000
C5     C      0.97768000000000     0.90297000000000     0.21104000000000
H3     H      0.01226000000000     0.90324000000000     0.64251000000000
H3     H      0.98774000000000     0.09676000000000     0.35749000000000
H4     H      0.94201000000000     0.22314000000000     0.59584000000000
H4     H      0.05799000000000     0.77686000000000     0.40416000000000
H5     H      0.10038000000000     0.11054000000000     0.95477000000000
H5     H      0.89962000000000     0.88946000000000     0.04523000000000
N3     N      0.88249000000000     0.54417000000000     0.05076000000000
N3     N      0.11751000000000     0.45583000000000     0.94924000000000
H6     H      0.80542000000000     0.49610000000000     0.77780000000000
H6     H      0.19458000000000     0.50390000000000     0.22220000000000
H7     H      0.90061000000000     0.54799000000000     0.20405000000000
H7     H      0.09939000000000     0.45201000000000     0.79595000000000
C1     C      0.69338000000000     0.11160000000000     0.79370000000000
C1     C      0.30662000000000     0.88840000000000     0.20630000000000
C2     C      0.68990000000000     0.25841000000000     0.75615000000000
C2     C      0.31010000000000     0.74159000000000     0.24385000000000
C3     C      0.58077000000000     0.35812000000000     0.44312000000000
C3     C      0.41923000000000     0.64188000000000     0.55688000000000
C4     C      0.47184000000000     0.31558000000000     0.16399000000000
C4     C      0.52816000000000     0.68442000000000     0.83601000000000
C5     C      0.47686000000000     0.16789000000000     0.20721000000000
C5     C      0.52314000000000     0.83211000000000     0.79279000000000
C6     C      0.58669000000000     0.06597000000000     0.51815000000000
C6     C      0.41331000000000     0.93403000000000     0.48185000000000
H1     H      0.77882000000000     0.03443000000000     0.03851000000000
H1     H      0.22118000000000     0.96557000000000     0.96149000000000
H2     H      0.77358000000000     0.29712000000000     0.97620000000000
H2     H      0.22642000000000     0.70288000000000     0.02380000000000
H3     H      0.39432000000000     0.13166000000000     0.99733000000000
H3     H      0.60568000000000     0.86834000000000     0.00267000000000
H4     H      0.58923000000000     0.95268000000000     0.54819000000000
H4     H      0.41077000000000     0.04732000000000     0.45181000000000
C7     C      0.35030000000000     0.42624000000000     0.82505000000000
C7     C      0.64970000000000     0.57376000000000     0.17495000000000
O1     O      0.33072000000000     0.55317000000000     0.74395000000000
O1     O      0.66928000000000     0.44683000000000     0.25605000000000
O2     O      0.25645000000000     0.38867000000000     0.60236000000000
O2     O      0.74355000000000     0.61133000000000     0.39764000000000
H5     H      0.18939000000000     0.49248000000000     0.42114000000000
H5     H      0.81061000000000     0.50752000000000     0.57886000000000
C8     C      0.58764000000000     0.51306000000000     0.42925000000000
C8     C      0.41236000000000     0.48694000000000     0.57075000000000
H6     H      0.67932000000000     0.53554000000000     0.68164000000000
H6     H      0.32068000000000     0.46446000000000     0.31836000000000
H7     H      0.56110000000000     0.41874000000000     0.21022000000000
H7     H      0.43890000000000     0.58126000000000     0.78978000000000
H8     H      0.52685000000000     0.70138000000000     0.38164000000000
H8     H      0.47315000000000     0.29862000000000     0.61836000000000
