data_default
_cell_volume          3201.194500
_symmetry_space_group_name_H-M 'P 1'
_symmetry_Int_Tables_number 1
loop_
_symmetry_equiv_pos_site_id
_symmetry_equiv_pos_as_xyz
1 x,y,z
_cell_length_a        17.5000000000
_cell_length_b        13.5400000000
_cell_length_c        13.5100000000
_cell_angle_alpha        90.0000
_cell_angle_beta        90.0000
_cell_angle_gamma        90.0000
_cell_formula_units_Z 1
loop_
_atom_site_label
_atom_site_type_symbol
_atom_site_fract_x
_atom_site_fract_y
_atom_site_fract_z
C100   C      0.03646000000000     0.22688000000000     0.16973000000000
C100   C      0.96354000000000     0.77312000000000     0.66973000000000
C100   C      0.53646000000000     0.27312000000000     0.16973000000000
C100   C      0.46354000000000     0.72688000000000     0.66973000000000
C101   C      0.99520000000000     0.17991000000000     0.09682000000000
C101   C      0.00480000000000     0.82009000000000     0.59682000000000
C101   C      0.49520000000000     0.32009000000000     0.09682000000000
C101   C      0.50480000000000     0.67991000000000     0.59682000000000
C102   C      0.03623000000000     0.12969000000000     0.02346000000000
C102   C      0.96377000000000     0.87031000000000     0.52346000000000
C102   C      0.53623000000000     0.37031000000000     0.02346000000000
C102   C      0.46377000000000     0.62969000000000     0.52346000000000
N103   N      0.11314000000000     0.12718000000000     0.02221000000000
N103   N      0.88686000000000     0.87282000000000     0.52221000000000
N103   N      0.61314000000000     0.37282000000000     0.02221000000000
N103   N      0.38686000000000     0.62718000000000     0.52221000000000
C104   C      0.14817000000000     0.17747000000000     0.09748000000000
C104   C      0.85183000000000     0.82253000000000     0.59748000000000
C104   C      0.64817000000000     0.32253000000000     0.09748000000000
C104   C      0.35183000000000     0.67747000000000     0.59748000000000
N105   N      0.11383000000000     0.22718000000000     0.17291000000000
N105   N      0.88617000000000     0.77282000000000     0.67291000000000
N105   N      0.61383000000000     0.27282000000000     0.17291000000000
N105   N      0.38617000000000     0.72718000000000     0.67291000000000
N106   N      0.22869000000000     0.18161000000000     0.09423000000000
N106   N      0.77131000000000     0.81839000000000     0.59423000000000
N106   N      0.72869000000000     0.31839000000000     0.09423000000000
N106   N      0.27131000000000     0.68161000000000     0.59423000000000
C107   C      0.99503000000000     0.07445000000000     0.94049000000000
C107   C      0.00497000000000     0.92555000000000     0.44049000000000
C107   C      0.49503000000000     0.42555000000000     0.94049000000000
C107   C      0.50497000000000     0.57445000000000     0.44049000000000
H108   H      0.00760000000000     0.26625000000000     0.22924000000000
H108   H      0.99240000000000     0.73375000000000     0.72924000000000
H108   H      0.50760000000000     0.23375000000000     0.22924000000000
H108   H      0.49240000000000     0.76625000000000     0.72924000000000
H109   H      0.93360000000000     0.18109000000000     0.09645000000000
H109   H      0.06640000000000     0.81891000000000     0.59645000000000
H109   H      0.43360000000000     0.31891000000000     0.09645000000000
H109   H      0.56640000000000     0.68109000000000     0.59645000000000
H110   H      0.96006000000000     0.12526000000000     0.89763000000000
H110   H      0.03994000000000     0.87474000000000     0.39763000000000
H110   H      0.46006000000000     0.37474000000000     0.89763000000000
H110   H      0.53994000000000     0.62526000000000     0.39763000000000
H111   H      0.03651000000000     0.03996000000000     0.89193000000000
H111   H      0.96349000000000     0.96004000000000     0.39193000000000
H111   H      0.53651000000000     0.46004000000000     0.89193000000000
H111   H      0.46349000000000     0.53996000000000     0.39193000000000
H112   H      0.95777000000000     0.01787000000000     0.97113000000000
H112   H      0.04223000000000     0.98213000000000     0.47113000000000
H112   H      0.45777000000000     0.48213000000000     0.97113000000000
H112   H      0.54223000000000     0.51787000000000     0.47113000000000
H113   H      0.25217000000000     0.12282000000000     0.05766000000000
H113   H      0.74783000000000     0.87718000000000     0.55766000000000
H113   H      0.75217000000000     0.37718000000000     0.05766000000000
H113   H      0.24783000000000     0.62282000000000     0.55766000000000
H114   H      0.25280000000000     0.19542000000000     0.16240000000000
H114   H      0.74720000000000     0.80458000000000     0.66240000000000
H114   H      0.75280000000000     0.30458000000000     0.16240000000000
H114   H      0.24720000000000     0.69542000000000     0.66240000000000
C115   C      0.10251000000000     0.57459000000000     0.35144000000000
C115   C      0.89749000000000     0.42541000000000     0.85144000000000
C115   C      0.60251000000000     0.92541000000000     0.35144000000000
C115   C      0.39749000000000     0.07459000000000     0.85144000000000
C116   C      0.09389000000000     0.48759000000000     0.40407000000000
C116   C      0.90611000000000     0.51241000000000     0.90407000000000
C116   C      0.59389000000000     0.01241000000000     0.40407000000000
C116   C      0.40611000000000     0.98759000000000     0.90407000000000
C117   C      0.14560000000000     0.41012000000000     0.39371000000000
C117   C      0.85440000000000     0.58988000000000     0.89371000000000
C117   C      0.64560000000000     0.08988000000000     0.39371000000000
C117   C      0.35440000000000     0.91012000000000     0.89371000000000
C118   C      0.20691000000000     0.42179000000000     0.32842000000000
C118   C      0.79309000000000     0.57821000000000     0.82842000000000
C118   C      0.70691000000000     0.07821000000000     0.32842000000000
C118   C      0.29309000000000     0.92179000000000     0.82842000000000
C119   C      0.21589000000000     0.50990000000000     0.27668000000000
C119   C      0.78411000000000     0.49010000000000     0.77668000000000
C119   C      0.71589000000000     0.99010000000000     0.27668000000000
C119   C      0.28411000000000     0.00990000000000     0.77668000000000
C120   C      0.16389000000000     0.58612000000000     0.28749000000000
C120   C      0.83611000000000     0.41388000000000     0.78749000000000
C120   C      0.66389000000000     0.91388000000000     0.28749000000000
C120   C      0.33611000000000     0.08612000000000     0.78749000000000
C121   C      0.26726000000000     0.34106000000000     0.31295000000000
C121   C      0.73274000000000     0.65894000000000     0.81295000000000
C121   C      0.76726000000000     0.15894000000000     0.31295000000000
C121   C      0.23274000000000     0.84106000000000     0.81295000000000
O122   O      0.24074000000000     0.24742000000000     0.28823000000000
O122   O      0.75926000000000     0.75258000000000     0.78823000000000
O122   O      0.74074000000000     0.25258000000000     0.28823000000000
O122   O      0.25926000000000     0.74742000000000     0.78823000000000
O123   O      0.33571000000000     0.35539000000000     0.32065000000000
O123   O      0.66429000000000     0.64461000000000     0.82065000000000
O123   O      0.83571000000000     0.14461000000000     0.32065000000000
O123   O      0.16429000000000     0.85539000000000     0.82065000000000
C124   C      0.13417000000000     0.31581000000000     0.45426000000000
C124   C      0.86583000000000     0.68419000000000     0.95426000000000
C124   C      0.63417000000000     0.18419000000000     0.45426000000000
C124   C      0.36583000000000     0.81581000000000     0.95426000000000
H125   H      0.06154000000000     0.63383000000000     0.36077000000000
H125   H      0.93846000000000     0.36617000000000     0.86077000000000
H125   H      0.56154000000000     0.86617000000000     0.36077000000000
H125   H      0.43846000000000     0.13383000000000     0.86077000000000
H126   H      0.04640000000000     0.47962000000000     0.45477000000000
H126   H      0.95360000000000     0.52038000000000     0.95477000000000
H126   H      0.54640000000000     0.02038000000000     0.45477000000000
H126   H      0.45360000000000     0.97962000000000     0.95477000000000
H127   H      0.26429000000000     0.51824000000000     0.22739000000000
H127   H      0.73571000000000     0.48176000000000     0.72739000000000
H127   H      0.76429000000000     0.98176000000000     0.22739000000000
H127   H      0.23571000000000     0.01824000000000     0.72739000000000
H128   H      0.17120000000000     0.65421000000000     0.24663000000000
H128   H      0.82880000000000     0.34579000000000     0.74663000000000
H128   H      0.67120000000000     0.84579000000000     0.24663000000000
H128   H      0.32880000000000     0.15421000000000     0.74663000000000
H129   H      0.18663000000000     0.25391000000000     0.26736000000000
H129   H      0.81337000000000     0.74609000000000     0.76736000000000
H129   H      0.68663000000000     0.24609000000000     0.26736000000000
H129   H      0.31337000000000     0.75391000000000     0.76736000000000
H130   H      0.10131000000000     0.26145000000000     0.41288000000000
H130   H      0.89869000000000     0.73855000000000     0.91288000000000
H130   H      0.60131000000000     0.23855000000000     0.41288000000000
H130   H      0.39869000000000     0.76145000000000     0.91288000000000
H131   H      0.18846000000000     0.28235000000000     0.47402000000000
H131   H      0.81154000000000     0.71765000000000     0.97402000000000
H131   H      0.68846000000000     0.21765000000000     0.47402000000000
H131   H      0.31154000000000     0.78235000000000     0.97402000000000
H132   H      0.10309000000000     0.33213000000000     0.52184000000000
H132   H      0.89691000000000     0.66787000000000     0.02184000000000
H132   H      0.60309000000000     0.16787000000000     0.52184000000000
H132   H      0.39691000000000     0.83213000000000     0.02184000000000
