data_default
_cell_volume           627.862447
_symmetry_space_group_name_H-M 'P 1'
_symmetry_Int_Tables_number 1
loop_
_symmetry_equiv_pos_site_id
_symmetry_equiv_pos_as_xyz
1 x,y,z
_cell_length_a         7.3607598790
_cell_length_b         7.6849743271
_cell_length_c        12.2630293575
_cell_angle_alpha        99.9055
_cell_angle_beta        91.6479
_cell_angle_gamma       112.5098
_cell_formula_units_Z 1
loop_
_atom_site_label
_atom_site_type_symbol
_atom_site_fract_x
_atom_site_fract_y
_atom_site_fract_z
C1_0   C      0.83967071485338     0.55777190154305     0.76988778313439
C1_0   C      0.16032928514662     0.44222809845695     0.23011221686561
C2_0   C      0.81077109167741     0.42498679952671     0.84996641274243
C2_0   C      0.18922890832259     0.57501320047329     0.15003358725757
H3_0   H      0.97220391763922     0.57360144409993     0.72744275957688
H3_0   H      0.02779608236078     0.42639855590007     0.27255724042312
H4_0   H      0.85240759188405     0.69985500101455     0.81308638005436
H4_0   H      0.14759240811595     0.30014499898545     0.18691361994564
H5_0   H      0.71056613284970     0.50061506140030     0.70724911718155
H5_0   H      0.28943386715030     0.49938493859970     0.29275088281845
N6_0   N      0.68392945557414     0.42861965491452     0.92547414993406
N6_0   N      0.31607054442586     0.57138034508548     0.07452585006594
C7_0   C      0.91233127812859     0.30294422711576     0.84646527455080
C7_0   C      0.08766872187141     0.69705577288425     0.15353472544920
C8_0   C      0.65921723762937     0.31399834905447     0.00126453048846
C8_0   C      0.34078276237063     0.68600165094553     0.99873546951154
C9_0   C      0.87873486585891     0.18983623807432     0.92636181960899
C9_0   C      0.12126513414109     0.81016376192568     0.07363818039101
H11_0  H      0.01596929206314     0.29968632029719     0.78574358931342
H11_0  H      0.98403070793686     0.70031367970281     0.21425641068658
N10_0  N      0.75493395924961     0.19351323747935     0.00369904365307
N10_0  N      0.24506604075039     0.80648676252065     0.99630095634693
N12_0  N      0.53591057269303     0.32003855988687     0.07840002397600
N12_0  N      0.46408942730697     0.67996144011313     0.92159997602400
H13_0  H      0.95545701693918     0.09395497456230     0.92953368897950
H13_0  H      0.04454298306082     0.90604502543770     0.07046631102050
H14_0  H      0.45996508908145     0.40839125924405     0.07723078702277
H14_0  H      0.54003491091855     0.59160874075595     0.92276921297723
H15_0  H      0.53916750005261     0.25518642740818     0.14461143799704
H15_0  H      0.46083249994739     0.74481357259182     0.85538856200296
H14_1  H      0.72877802266609     0.63957844556281     0.55721425711492
H14_1  H      0.27122197733391     0.36042155443719     0.44278574288508
C9_1   C      0.72378406650004     0.72313468949939     0.49484890544505
C9_1   C      0.27621593349996     0.27686531050061     0.50515109455495
C7_1   C      0.75210844752152     0.91508637186400     0.52809844141192
C7_1   C      0.24789155247848     0.08491362813600     0.47190155858808
C10_1  C      0.68975060659760     0.63807609376525     0.38200712485744
C10_1  C      0.31024939340240     0.36192390623475     0.61799287514256
C2_1   C      0.74376257219717     0.02745940180120     0.45094996775939
C2_1   C      0.25623742780283     0.97254059819880     0.54905003224061
H12_1  H      0.78069858469662     0.98044400808380     0.61637532440196
H12_1  H      0.21930141530338     0.01955599191620     0.38362467559804
C8_1   C      0.68374187972029     0.74792825104169     0.30389588428897
C8_1   C      0.31625812027971     0.25207174895831     0.69610411571103
H15_1  H      0.66789500215655     0.48809766794142     0.35513075499088
H15_1  H      0.33210499784345     0.51190233205858     0.64486924500912
C1_1   C      0.77942597930431     0.23452441157207     0.49264675767656
C1_1   C      0.22057402069569     0.76547558842793     0.50735324232344
C6_1   C      0.70728955329245     0.94012751629112     0.33693843934141
C6_1   C      0.29271044670755     0.05987248370888     0.66306156065859
H13_1  H      0.65658883134384     0.68490790519923     0.21546054388424
H13_1  H      0.34341116865616     0.31509209480077     0.78453945611576
H3_1   H      0.87923978538750     0.32925088418451     0.44344551535939
H3_1   H      0.12076021461250     0.67074911581549     0.55655448464061
H4_1   H      0.84521388511797     0.27937653786980     0.57924580573152
H4_1   H      0.15478611488203     0.72062346213020     0.42075419426848
H5_1   H      0.64093084104353     0.25652098423749     0.48832906402072
H5_1   H      0.35906915895647     0.74347901576251     0.51167093597928
C11_1  C      0.68772494695611     0.04498990398427     0.24861137971336
C11_1  C      0.31227505304389     0.95501009601573     0.75138862028664
O16_1  O      0.61522404841542     0.16819053574293     0.26343795218036
O16_1  O      0.38477595158458     0.83180946425707     0.73656204781964
O17_1  O      0.75126180375448     0.99315865868299     0.15327466121529
O17_1  O      0.24873819624552     0.00684134131701     0.84672533878471
H18_1  H      0.74024306274229     0.07641919370474     0.09285307001696
H18_1  H      0.25975693725771     0.92358080629526     0.90714692998304
