data_default
_cell_volume          1256.862735
_symmetry_space_group_name_H-M 'P 1'
_symmetry_Int_Tables_number 1
loop_
_symmetry_equiv_pos_site_id
_symmetry_equiv_pos_as_xyz
1 x,y,z
_cell_length_a         7.5956279253
_cell_length_b        23.5614165024
_cell_length_c         8.2708633833
_cell_angle_alpha        90.0000
_cell_angle_beta        58.1167
_cell_angle_gamma        90.0000
_cell_formula_units_Z 1
loop_
_atom_site_label
_atom_site_type_symbol
_atom_site_fract_x
_atom_site_fract_y
_atom_site_fract_z
C1_0   C      0.86178615000128     0.94588421379148     0.70307668364690
C1_0   C      0.13821384999872     0.44588421379148     0.79692331635310
C1_0   C      0.13821384999872     0.05411578620852     0.29692331635310
C1_0   C      0.86178615000128     0.55411578620852     0.20307668364690
C2_0   C      0.73351694654971     0.94807612618382     0.91571567246675
C2_0   C      0.26648305345029     0.44807612618382     0.58428432753325
C2_0   C      0.26648305345029     0.05192387381618     0.08428432753325
C2_0   C      0.73351694654971     0.55192387381618     0.41571567246675
H3_0   H      0.01967369760482     0.96076357939850     0.65089749931447
H3_0   H      0.98032630239518     0.46076357939850     0.84910250068553
H3_0   H      0.98032630239518     0.03923642060150     0.34910250068553
H3_0   H      0.01967369760482     0.53923642060150     0.15089749931447
H4_0   H      0.79617837956967     0.97386374292846     0.64176582782546
H4_0   H      0.20382162043033     0.47386374292846     0.85823417217454
H4_0   H      0.20382162043033     0.02613625707154     0.35823417217454
H4_0   H      0.79617837956967     0.52613625707154     0.14176582782546
H5_0   H      0.86697776151253     0.90292379670423     0.65074163734378
H5_0   H      0.13302223848747     0.40292379670423     0.84925836265622
H5_0   H      0.13302223848747     0.09707620329577     0.34925836265622
H5_0   H      0.86697776151253     0.59707620329577     0.15074163734378
N6_0   N      0.75769370332137     0.99337029819313     0.00089136530949
N6_0   N      0.24230629667863     0.49337029819313     0.49910863469051
N6_0   N      0.24230629667863     0.00662970180687     0.99910863469051
N6_0   N      0.75769370332137     0.50662970180687     0.50089136530949
C7_0   C      0.59344695838318     0.90511438904190     0.02440543231960
C7_0   C      0.40655304161682     0.40511438904190     0.47559456768040
C7_0   C      0.40655304161682     0.09488561095810     0.97559456768040
C7_0   C      0.59344695838318     0.59488561095810     0.52440543231960
C8_0   C      0.64639810479917     0.99615537264474     0.19463533879657
C8_0   C      0.35360189520083     0.49615537264474     0.30536466120343
C8_0   C      0.35360189520083     0.00384462735526     0.80536466120343
C8_0   C      0.64639810479917     0.50384462735526     0.69463533879657
C9_0   C      0.48855063731952     0.91077287690425     0.22127846274352
C9_0   C      0.51144936268048     0.41077287690425     0.27872153725648
C9_0   C      0.51144936268048     0.08922712309575     0.77872153725648
C9_0   C      0.48855063731952     0.58922712309575     0.72127846274352
H11_0  H      0.56981552087986     0.86880033816417     0.95719956805748
H11_0  H      0.43018447912014     0.36880033816417     0.54280043194252
H11_0  H      0.43018447912014     0.13119966183583     0.04280043194252
H11_0  H      0.56981552087986     0.63119966183583     0.45719956805748
N10_0  N      0.51332898511577     0.95491084823298     0.30853797842653
N10_0  N      0.48667101488423     0.45491084823298     0.19146202157347
N10_0  N      0.48667101488423     0.04508915176702     0.69146202157347
N10_0  N      0.51332898511577     0.54508915176702     0.80853797842653
N12_0  N      0.67017019259765     0.04204080772258     0.27643240758502
N12_0  N      0.32982980740235     0.54204080772258     0.22356759241498
N12_0  N      0.32982980740235     0.95795919227742     0.72356759241498
N12_0  N      0.67017019259765     0.45795919227742     0.77643240758502
H13_0  H      0.37917829575608     0.87828928949996     0.31455294081484
H13_0  H      0.62082170424392     0.37828928949996     0.18544705918516
H13_0  H      0.62082170424392     0.12171071050004     0.68544705918516
H13_0  H      0.37917829575608     0.62171071050004     0.81455294081484
H14_0  H      0.75245019521421     0.07598133010655     0.19147435415450
H14_0  H      0.24754980478579     0.57598133010655     0.30852564584550
H14_0  H      0.24754980478579     0.92401866989345     0.80852564584550
H14_0  H      0.75245019521421     0.42401866989345     0.69147435415450
H15_0  H      0.60035821002603     0.04353258271023     0.42267521178460
H15_0  H      0.39964178997397     0.54353258271023     0.07732478821540
H15_0  H      0.39964178997397     0.95646741728977     0.57732478821540
H15_0  H      0.60035821002603     0.45646741728977     0.92267521178460
H18_1  H      0.89758913828005     0.04211651045773     0.87841154854919
H18_1  H      0.10241086171995     0.54211651045773     0.62158845145081
H18_1  H      0.10241086171995     0.95788348954227     0.12158845145081
H18_1  H      0.89758913828005     0.45788348954227     0.37841154854919
O17_1  O      0.99429064298064     0.07348228808356     0.77525017049607
O17_1  O      0.00570935701936     0.57348228808356     0.72474982950393
O17_1  O      0.00570935701936     0.92651771191644     0.22474982950393
O17_1  O      0.99429064298064     0.42651771191644     0.27525017049607
C11_1  C      0.97549011277770     0.12458580423642     0.84935663963513
C11_1  C      0.02450988722230     0.62458580423642     0.65064336036487
C11_1  C      0.02450988722230     0.87541419576358     0.15064336036487
C11_1  C      0.97549011277770     0.37541419576358     0.34935663963513
C6_1   C      0.09860996064204     0.16915970001225     0.70509150423511
C6_1   C      0.90139003935796     0.66915970001225     0.79490849576489
C6_1   C      0.90139003935796     0.83084029998775     0.29490849576489
C6_1   C      0.09860996064204     0.33084029998775     0.20509150423511
O16_1  O      0.86675905621353     0.13469008424881     0.02316660158109
O16_1  O      0.13324094378647     0.63469008424881     0.47683339841891
O16_1  O      0.13324094378647     0.86530991575119     0.97683339841891
O16_1  O      0.86675905621353     0.36530991575119     0.52316660158109
C2_1   C      0.03699445638016     0.22671584471355     0.73252856442111
C2_1   C      0.96300554361984     0.72671584471355     0.76747143557889
C2_1   C      0.96300554361984     0.77328415528645     0.26747143557889
C2_1   C      0.03699445638016     0.27328415528645     0.23252856442111
C8_1   C      0.28152093806798     0.15238443584587     0.53745727520116
C8_1   C      0.71847906193202     0.65238443584587     0.96254272479884
C8_1   C      0.71847906193202     0.84761556415413     0.46254272479884
C8_1   C      0.28152093806798     0.34761556415413     0.03745727520116
C1_1   C      0.84107421160464     0.24835189743335     0.90417455647638
C1_1   C      0.15892578839536     0.74835189743335     0.59582544352362
C1_1   C      0.15892578839536     0.75164810256665     0.09582544352362
C1_1   C      0.84107421160464     0.25164810256665     0.40417455647638
C7_1   C      0.16329029423327     0.26519144294884     0.58753821673427
C7_1   C      0.83670970576673     0.76519144294884     0.91246178326573
C7_1   C      0.83670970576673     0.73480855705116     0.41246178326573
C7_1   C      0.16329029423327     0.23480855705116     0.08753821673427
C10_1  C      0.40594424797360     0.19144395219926     0.39688142714670
C10_1  C      0.59405575202640     0.69144395219926     0.10311857285330
C10_1  C      0.59405575202640     0.80855604780074     0.60311857285330
C10_1  C      0.40594424797360     0.30855604780074     0.89688142714670
H13_1  H      0.32486747202913     0.10784681723734     0.51981735236599
H13_1  H      0.67513252797087     0.60784681723734     0.98018264763401
H13_1  H      0.67513252797087     0.89215318276266     0.48018264763401
H13_1  H      0.32486747202913     0.39215318276266     0.01981735236599
H3_1   H      0.80846598382177     0.29150169062627     0.87748499729764
H3_1   H      0.19153401617823     0.79150169062627     0.62251500270236
H3_1   H      0.19153401617823     0.70849830937373     0.12251500270236
H3_1   H      0.80846598382177     0.20849830937373     0.37748499729764
H4_1   H      0.70684175347254     0.22163453100563     0.94082666052163
H4_1   H      0.29315824652746     0.72163453100563     0.55917333947837
H4_1   H      0.29315824652746     0.77836546899437     0.05917333947837
H4_1   H      0.70684175347254     0.27836546899437     0.44082666052163
H5_1   H      0.85487816454309     0.24903475678021     0.02960432752324
H5_1   H      0.14512183545691     0.74903475678021     0.47039567247676
H5_1   H      0.14512183545691     0.75096524321979     0.97039567247676
H5_1   H      0.85487816454309     0.25096524321979     0.52960432752324
C9_1   C      0.34483024343844     0.24823116619982     0.42230422402204
C9_1   C      0.65516975656156     0.74823116619982     0.07769577597796
C9_1   C      0.65516975656156     0.75176883380018     0.57769577597796
C9_1   C      0.34483024343844     0.25176883380018     0.92230422402204
H12_1  H      0.11351960352860     0.30927631183845     0.60356790390903
H12_1  H      0.88648039647140     0.80927631183845     0.89643209609097
H12_1  H      0.88648039647140     0.69072368816155     0.39643209609097
H12_1  H      0.11351960352860     0.19072368816155     0.10356790390903
H15_1  H      0.54817760525826     0.17764937436356     0.26877405476153
H15_1  H      0.45182239474174     0.67764937436356     0.23122594523847
H15_1  H      0.45182239474174     0.82235062563644     0.73122594523847
H15_1  H      0.54817760525826     0.32235062563644     0.76877405476153
H14_1  H      0.43688098985753     0.27928069534553     0.31155216931489
H14_1  H      0.56311901014247     0.77928069534553     0.18844783068511
H14_1  H      0.56311901014247     0.72071930465447     0.68844783068511
H14_1  H      0.43688098985753     0.22071930465447     0.81155216931489
