data_default
_cell_volume          1304.249045
_symmetry_space_group_name_H-M 'P 1'
_symmetry_Int_Tables_number 1
loop_
_symmetry_equiv_pos_site_id
_symmetry_equiv_pos_as_xyz
1 x,y,z
_cell_length_a        11.9890000000
_cell_length_b         6.4527000000
_cell_length_c        18.1269000000
_cell_angle_alpha        90.0000
_cell_angle_beta        68.4447
_cell_angle_gamma        90.0000
_cell_formula_units_Z 1
loop_
_atom_site_label
_atom_site_type_symbol
_atom_site_fract_x
_atom_site_fract_y
_atom_site_fract_z
C1     C      0.86198700000000     0.89658700000000     0.92609500000000
C1     C      0.13801300000000     0.39658700000000     0.57390500000000
C1     C      0.13801300000000     0.10341300000000     0.07390500000000
C1     C      0.86198700000000     0.60341300000000     0.42609500000000
C2     C      0.83413700000000     0.01254000000000     0.99673100000000
C2     C      0.16586300000000     0.51254000000000     0.50326900000000
C2     C      0.16586300000000     0.98746000000000     0.00326900000000
C2     C      0.83413700000000     0.48746000000000     0.49673100000000
C3     C      0.89643200000000     0.19853000000000     0.99252400000000
C3     C      0.10356800000000     0.69853000000000     0.50747600000000
C3     C      0.10356800000000     0.80147000000000     0.00747600000000
C3     C      0.89643200000000     0.30147000000000     0.49252400000000
C4     C      0.98293400000000     0.26917000000000     0.92202600000000
C4     C      0.01706600000000     0.76917000000000     0.57797400000000
C4     C      0.01706600000000     0.73083000000000     0.07797400000000
C4     C      0.98293400000000     0.23083000000000     0.42202600000000
C5     C      0.00937000000000     0.15281000000000     0.85285600000000
C5     C      0.99063000000000     0.65281000000000     0.64714400000000
C5     C      0.99063000000000     0.84719000000000     0.14714400000000
C5     C      0.00937000000000     0.34719000000000     0.35285600000000
C6     C      0.94906800000000     0.96732800000000     0.85500900000000
C6     C      0.05093200000000     0.46732800000000     0.64499100000000
C6     C      0.05093200000000     0.03267200000000     0.14499100000000
C6     C      0.94906800000000     0.53267200000000     0.35500900000000
C7     C      0.79961700000000     0.69759900000000     0.92589800000000
C7     C      0.20038300000000     0.19759900000000     0.57410200000000
C7     C      0.20038300000000     0.30240100000000     0.07410200000000
C7     C      0.79961700000000     0.80240100000000     0.42589800000000
C8     C      0.74200400000000     0.94741100000000     0.07530000000000
C8     C      0.25799600000000     0.44741100000000     0.42470000000000
C8     C      0.25799600000000     0.05258900000000     0.92470000000000
C8     C      0.74200400000000     0.55258900000000     0.57530000000000
H1     H      0.79094500000000     0.48056200000000     0.86050100000000
H1     H      0.20905500000000     0.98056200000000     0.63949900000000
H1     H      0.20905500000000     0.51943800000000     0.13949900000000
H1     H      0.79094500000000     0.01943800000000     0.36050100000000
H2     H      0.65354600000000     0.93125900000000     0.07211000000000
H2     H      0.34645400000000     0.43125900000000     0.42789000000000
H2     H      0.34645400000000     0.06874100000000     0.92789000000000
H2     H      0.65354600000000     0.56874100000000     0.57211000000000
H3     H      0.73753200000000     0.06281000000000     0.12016000000000
H3     H      0.26246800000000     0.56281000000000     0.37984000000000
H3     H      0.26246800000000     0.93719000000000     0.87984000000000
H3     H      0.73753200000000     0.43719000000000     0.62016000000000
H4     H      0.76383900000000     0.79776400000000     0.09415000000000
H4     H      0.23616100000000     0.29776400000000     0.40585000000000
H4     H      0.23616100000000     0.20223600000000     0.90585000000000
H4     H      0.76383900000000     0.70223600000000     0.59415000000000
H5     H      0.87629000000000     0.28967000000000     0.04607000000000
H5     H      0.12371000000000     0.78967000000000     0.45393000000000
H5     H      0.12371000000000     0.71033000000000     0.95393000000000
H5     H      0.87629000000000     0.21033000000000     0.54607000000000
H6     H      0.02916000000000     0.41381000000000     0.92122100000000
H6     H      0.97084000000000     0.91381000000000     0.57877900000000
H6     H      0.97084000000000     0.58619000000000     0.07877900000000
H6     H      0.02916000000000     0.08619000000000     0.42122100000000
H7     H      0.07632000000000     0.20579000000000     0.79770500000000
H7     H      0.92368000000000     0.70579000000000     0.70229500000000
H7     H      0.92368000000000     0.79421000000000     0.20229500000000
H7     H      0.07632000000000     0.29421000000000     0.29770500000000
H8     H      0.96880800000000     0.87591600000000     0.80179500000000
H8     H      0.03119200000000     0.37591600000000     0.69820500000000
H8     H      0.03119200000000     0.12408400000000     0.19820500000000
H8     H      0.96880800000000     0.62408400000000     0.30179500000000
O1     O      0.83769800000000     0.60709600000000     0.85281500000000
O1     O      0.16230200000000     0.10709600000000     0.64718500000000
O1     O      0.16230200000000     0.39290400000000     0.14718500000000
O1     O      0.83769800000000     0.89290400000000     0.35281500000000
O2     O      0.72232500000000     0.61698700000000     0.98295700000000
O2     O      0.27767500000000     0.11698700000000     0.51704300000000
O2     O      0.27767500000000     0.38301300000000     0.01704300000000
O2     O      0.72232500000000     0.88301300000000     0.48295700000000
C9     C      0.69761400000000     0.99542209000000     0.75491200000000
C9     C      0.30238600000000     0.49542209000000     0.74508800000000
C9     C      0.30238600000000     0.00457791000000     0.24508800000000
C9     C      0.69761400000000     0.50457791000000     0.25491200000000
C10    C      0.74727500000000     0.17733900000000     0.77059400000000
C10    C      0.25272500000000     0.67733900000000     0.72940600000000
C10    C      0.25272500000000     0.82266100000000     0.22940600000000
C10    C      0.74727500000000     0.32266100000000     0.27059400000000
C11    C      0.62995900000000     0.15380500000000     0.90084700000000
C11    C      0.37004100000000     0.65380500000000     0.59915300000000
C11    C      0.37004100000000     0.84619500000000     0.09915300000000
C11    C      0.62995900000000     0.34619500000000     0.40084700000000
C12    C      0.61031500000000     0.89845900000000     0.81909500000000
C12    C      0.38968500000000     0.39845900000000     0.68090500000000
C12    C      0.38968500000000     0.10154100000000     0.18090500000000
C12    C      0.61031500000000     0.60154100000000     0.31909500000000
C13    C      0.54947500000000     0.70148500000000     0.81054300000000
C13    C      0.45052500000000     0.20148500000000     0.68945700000000
C13    C      0.45052500000000     0.29851500000000     0.18945700000000
C13    C      0.54947500000000     0.79851500000000     0.31054300000000
H9     H      0.56491800000000     0.58083000000000     0.84772400000000
H9     H      0.43508200000000     0.08083000000000     0.65227600000000
H9     H      0.43508200000000     0.41917000000000     0.15227600000000
H9     H      0.56491800000000     0.91917000000000     0.34772400000000
H10    H      0.58239000000000     0.64813700000000     0.74930300000000
H10    H      0.41761000000000     0.14813700000000     0.75069700000000
H10    H      0.41761000000000     0.35186300000000     0.25069700000000
H10    H      0.58239000000000     0.85186300000000     0.24930300000000
H11    H      0.45299200000000     0.72574900000000     0.83032700000000
H11    H      0.54700800000000     0.22574900000000     0.66967300000000
H11    H      0.54700800000000     0.27425100000000     0.16967300000000
H11    H      0.45299200000000     0.77425100000000     0.33032700000000
H12    H      0.63325600000000     0.36552400000000     0.98411600000000
H12    H      0.36674400000000     0.86552400000000     0.51588400000000
H12    H      0.36674400000000     0.63447600000000     0.01588400000000
H12    H      0.63325600000000     0.13447600000000     0.48411600000000
H13    H      0.53237300000000     0.16097700000000     0.02021000000000
H13    H      0.46762700000000     0.66097700000000     0.47979000000000
H13    H      0.46762700000000     0.83902300000000     0.97979000000000
H13    H      0.53237300000000     0.33902300000000     0.52021000000000
H14    H      0.81560700000000     0.26089400000000     0.72349800000000
H14    H      0.18439300000000     0.76089400000000     0.77650200000000
H14    H      0.18439300000000     0.73910600000000     0.27650200000000
H14    H      0.81560700000000     0.23910600000000     0.22349800000000
H15    H      0.72555200000000     0.93245420000000     0.69565300000000
H15    H      0.27444800000000     0.43245420000000     0.80434700000000
H15    H      0.27444800000000     0.06754580000000     0.30434700000000
H15    H      0.72555200000000     0.56754580000000     0.19565300000000
N1     N      0.71513500000000     0.26022100000000     0.84307500000000
N1     N      0.28486500000000     0.76022100000000     0.65692500000000
N1     N      0.28486500000000     0.73977900000000     0.15692500000000
N1     N      0.71513500000000     0.23977900000000     0.34307500000000
N2     N      0.57578300000000     0.97713780000000     0.89269600000000
N2     N      0.42421700000000     0.47713780000000     0.60730400000000
N2     N      0.42421700000000     0.02286220000000     0.10730400000000
N2     N      0.57578300000000     0.52286220000000     0.39269600000000
N3     N      0.59530200000000     0.23421200000000     0.97528800000000
N3     N      0.40469800000000     0.73421200000000     0.52471200000000
N3     N      0.40469800000000     0.76578800000000     0.02471200000000
N3     N      0.59530200000000     0.26578800000000     0.47528800000000
