data_default
_cell_volume          1339.230045
_symmetry_space_group_name_H-M 'P 1'
_symmetry_Int_Tables_number 1
loop_
_symmetry_equiv_pos_site_id
_symmetry_equiv_pos_as_xyz
1 x,y,z
_cell_length_a         9.1278000000
_cell_length_b         4.9492000000
_cell_length_c        29.9395000000
_cell_angle_alpha        90.0000
_cell_angle_beta        81.9595
_cell_angle_gamma        90.0000
_cell_formula_units_Z 1
loop_
_atom_site_label
_atom_site_type_symbol
_atom_site_fract_x
_atom_site_fract_y
_atom_site_fract_z
C1     C      0.26028000000000     0.15103800000000     0.81816300000000
C1     C      0.73972000000000     0.65103800000000     0.68183700000000
C1     C      0.73972000000000     0.84896200000000     0.18183700000000
C1     C      0.26028000000000     0.34896200000000     0.31816300000000
C2     C      0.15178900000000     0.34416300000000     0.83443200000000
C2     C      0.84821100000000     0.84416300000000     0.66556800000000
C2     C      0.84821100000000     0.65583700000000     0.16556800000000
C2     C      0.15178900000000     0.15583700000000     0.33443200000000
C3     C      0.09722490000000     0.50998000000000     0.80258900000000
C3     C      0.90277510000000     0.00998000000000     0.69741100000000
C3     C      0.90277510000000     0.49002000000000     0.19741100000000
C3     C      0.09722490000000     0.99002000000000     0.30258900000000
C4     C      0.14664600000000     0.48875200000000     0.75653800000000
C4     C      0.85335400000000     0.98875200000000     0.74346200000000
C4     C      0.85335400000000     0.51124800000000     0.24346200000000
C4     C      0.14664600000000     0.01124800000000     0.25653800000000
C5     C      0.25380300000000     0.29715300000000     0.74104500000000
C5     C      0.74619700000000     0.79715300000000     0.75895500000000
C5     C      0.74619700000000     0.70284700000000     0.25895500000000
C5     C      0.25380300000000     0.20284700000000     0.24104500000000
C6     C      0.31025300000000     0.12924200000000     0.77178400000000
C6     C      0.68974700000000     0.62924200000000     0.72821600000000
C6     C      0.68974700000000     0.87075800000000     0.22821600000000
C6     C      0.31025300000000     0.37075800000000     0.27178400000000
C7     C      0.32341300000000     0.96787610000000     0.84989800000000
C7     C      0.67658700000000     0.46787610000000     0.65010200000000
C7     C      0.67658700000000     0.03212390000000     0.15010200000000
C7     C      0.32341300000000     0.53212390000000     0.34989800000000
C8     C      0.09239900000000     0.38031900000000     0.88359100000000
C8     C      0.90760100000000     0.88031900000000     0.61640900000000
C8     C      0.90760100000000     0.61968100000000     0.11640900000000
C8     C      0.09239900000000     0.11968100000000     0.38359100000000
H1     H      0.45857500000000     0.68822700000000     0.85237700000000
H1     H      0.54142500000000     0.18822700000000     0.64762300000000
H1     H      0.54142500000000     0.31177300000000     0.14762300000000
H1     H      0.45857500000000     0.81177300000000     0.35237700000000
H2     H      0.04120220000000     0.19592900000000     0.89813100000000
H2     H      0.95879780000000     0.69592900000000     0.60186900000000
H2     H      0.95879780000000     0.80407100000000     0.10186900000000
H2     H      0.04120220000000     0.30407100000000     0.39813100000000
H3     H      0.01034660000000     0.54154200000000     0.88723500000000
H3     H      0.98965340000000     0.04154200000000     0.61276500000000
H3     H      0.98965340000000     0.45845800000000     0.11276500000000
H3     H      0.01034660000000     0.95845800000000     0.38723500000000
H4     H      0.17996600000000     0.43104400000000     0.90334800000000
H4     H      0.82003400000000     0.93104400000000     0.59665200000000
H4     H      0.82003400000000     0.56895600000000     0.09665200000000
H4     H      0.17996600000000     0.06895600000000     0.40334800000000
H5     H      0.01393210000000     0.65930600000000     0.81442200000000
H5     H      0.98606790000000     0.15930600000000     0.68557800000000
H5     H      0.98606790000000     0.34069400000000     0.18557800000000
H5     H      0.01393210000000     0.84069400000000     0.31442200000000
H6     H      0.10171300000000     0.62077400000000     0.73300000000000
H6     H      0.89828700000000     0.12077400000000     0.76700000000000
H6     H      0.89828700000000     0.37922600000000     0.26700000000000
H6     H      0.10171300000000     0.87922600000000     0.23300000000000
H7     H      0.29318900000000     0.27843700000000     0.70538300000000
H7     H      0.70681100000000     0.77843700000000     0.79461700000000
H7     H      0.70681100000000     0.72156300000000     0.29461700000000
H7     H      0.29318900000000     0.22156300000000     0.20538300000000
H8     H      0.39328400000000     0.98004060000000     0.76018800000000
H8     H      0.60671600000000     0.48004060000000     0.73981200000000
H8     H      0.60671600000000     0.01995940000000     0.23981200000000
H8     H      0.39328400000000     0.51995940000000     0.26018800000000
O1     O      0.42634400000000     0.79514600000000     0.82834700000000
O1     O      0.57365600000000     0.29514600000000     0.67165300000000
O1     O      0.57365600000000     0.20485400000000     0.17165300000000
O1     O      0.42634400000000     0.70485400000000     0.32834700000000
O2     O      0.29088400000000     0.96367190000000     0.89091800000000
O2     O      0.70911600000000     0.46367190000000     0.60908200000000
O2     O      0.70911600000000     0.03632810000000     0.10908200000000
O2     O      0.29088400000000     0.53632810000000     0.39091800000000
C9     C      0.72898500000000     0.09947440000000     0.88849200000000
C9     C      0.27101500000000     0.59947440000000     0.61150800000000
C9     C      0.27101500000000     0.90052560000000     0.11150800000000
C9     C      0.72898500000000     0.40052560000000     0.38849200000000
C10    C      0.64891600000000     0.27069400000000     0.86405700000000
C10    C      0.35108400000000     0.77069400000000     0.63594300000000
C10    C      0.35108400000000     0.72930600000000     0.13594300000000
C10    C      0.64891600000000     0.22930600000000     0.36405700000000
C11    C      0.53735300000000     0.46052600000000     0.92890200000000
C11    C      0.46264700000000     0.96052600000000     0.57109800000000
C11    C      0.46264700000000     0.53947400000000     0.07109800000000
C11    C      0.53735300000000     0.03947400000000     0.42890200000000
C12    C      0.70482600000000     0.12447600000000     0.93536700000000
C12    C      0.29517400000000     0.62447600000000     0.56463300000000
C12    C      0.29517400000000     0.87552400000000     0.06463300000000
C12    C      0.70482600000000     0.37552400000000     0.43536700000000
C13    C      0.78375200000000     0.95260160000000     0.96576300000000
C13    C      0.21624800000000     0.45260160000000     0.53423700000000
C13    C      0.21624800000000     0.04739840000000     0.03423700000000
C13    C      0.78375200000000     0.54739840000000     0.46576300000000
H9     H      0.84599000000000     0.08011480000000     0.98606700000000
H9     H      0.15401000000000     0.58011480000000     0.51393300000000
H9     H      0.15401000000000     0.91988520000000     0.01393300000000
H9     H      0.84599000000000     0.41988520000000     0.48606700000000
H10    H      0.85942000000000     0.81164200000000     0.94652800000000
H10    H      0.14058000000000     0.31164200000000     0.55347200000000
H10    H      0.14058000000000     0.18835800000000     0.05347200000000
H10    H      0.85942000000000     0.68835800000000     0.44652800000000
H11    H      0.70378400000000     0.83902100000000     0.98888600000000
H11    H      0.29621600000000     0.33902100000000     0.51111400000000
H11    H      0.29621600000000     0.16097900000000     0.01111400000000
H11    H      0.70378400000000     0.66097900000000     0.48888600000000
H12    H      0.38423900000000     0.76399700000000     0.93075700000000
H12    H      0.61576100000000     0.26399700000000     0.56924300000000
H12    H      0.61576100000000     0.23600300000000     0.06924300000000
H12    H      0.38423900000000     0.73600300000000     0.43075700000000
H13    H      0.42477500000000     0.65757900000000     0.98330800000000
H13    H      0.57522500000000     0.15757900000000     0.51669200000000
H13    H      0.57522500000000     0.34242100000000     0.01669200000000
H13    H      0.42477500000000     0.84242100000000     0.48330800000000
H14    H      0.66219700000000     0.26227700000000     0.82749400000000
H14    H      0.33780300000000     0.76227700000000     0.67250600000000
H14    H      0.33780300000000     0.73772300000000     0.17250600000000
H14    H      0.66219700000000     0.23772300000000     0.32749400000000
H15    H      0.80631200000000     0.95394950000000     0.87187300000000
H15    H      0.19368800000000     0.45394950000000     0.62812700000000
H15    H      0.19368800000000     0.04605050000000     0.12812700000000
H15    H      0.80631200000000     0.54605050000000     0.37187300000000
N1     N      0.55222100000000     0.45337900000000     0.88337600000000
N1     N      0.44777900000000     0.95337900000000     0.61662400000000
N1     N      0.44777900000000     0.54662100000000     0.11662400000000
N1     N      0.55222100000000     0.04662100000000     0.38337600000000
N2     N      0.60858100000000     0.30563600000000     0.95596000000000
N2     N      0.39141900000000     0.80563600000000     0.54404000000000
N2     N      0.39141900000000     0.69436400000000     0.04404000000000
N2     N      0.60858100000000     0.19436400000000     0.45596000000000
N3     N      0.43975700000000     0.64438300000000     0.94958100000000
N3     N      0.56024300000000     0.14438300000000     0.55041900000000
N3     N      0.56024300000000     0.35561700000000     0.05041900000000
N3     N      0.43975700000000     0.85561700000000     0.44958100000000
