data_default
_cell_volume          1172.007268
_symmetry_space_group_name_H-M 'P 1'
_symmetry_Int_Tables_number 1
loop_
_symmetry_equiv_pos_site_id
_symmetry_equiv_pos_as_xyz
1 x,y,z
_cell_length_a        14.4760000000
_cell_length_b         4.5030000000
_cell_length_c        20.4900000000
_cell_angle_alpha        90.0000
_cell_angle_beta        61.3400
_cell_angle_gamma        90.0000
_cell_formula_units_Z 1
loop_
_atom_site_label
_atom_site_type_symbol
_atom_site_fract_x
_atom_site_fract_y
_atom_site_fract_z
C1     C      0.24550000000000     0.64850000000000     0.82400000000000
C1     C      0.75450000000000     0.35150000000000     0.17600000000000
C1     C      0.75450000000000     0.14850000000000     0.67600000000000
C1     C      0.24550000000000     0.85150000000000     0.32400000000000
C2     C      0.34840000000000     0.67030000000000     0.81320000000000
C2     C      0.65160000000000     0.32970000000000     0.18680000000000
C2     C      0.65160000000000     0.17030000000000     0.68680000000000
C2     C      0.34840000000000     0.82970000000000     0.31320000000000
C3     C      0.38170000000000     0.49970000000000     0.85420000000000
C3     C      0.61830000000000     0.50030000000000     0.14580000000000
C3     C      0.61830000000000     0.99970000000000     0.64580000000000
C3     C      0.38170000000000     0.00030000000000     0.35420000000000
C4     C      0.31110000000000     0.30340000000000     0.90710000000000
C4     C      0.68890000000000     0.69660000000000     0.09290000000000
C4     C      0.68890000000000     0.80340000000000     0.59290000000000
C4     C      0.31110000000000     0.19660000000000     0.40710000000000
C5     C      0.20900000000000     0.28120000000000     0.91830000000000
C5     C      0.79100000000000     0.71880000000000     0.08170000000000
C5     C      0.79100000000000     0.78120000000000     0.58170000000000
C5     C      0.20900000000000     0.21880000000000     0.41830000000000
C6     C      0.17330000000000     0.45060000000000     0.87760000000000
C6     C      0.82670000000000     0.54940000000000     0.12240000000000
C6     C      0.82670000000000     0.95060000000000     0.62240000000000
C6     C      0.17330000000000     0.04940000000000     0.37760000000000
C7     C      0.06260000000000     0.41350000000000     0.89270000000000
C7     C      0.93740000000000     0.58650000000000     0.10730000000000
C7     C      0.93740000000000     0.91350000000000     0.60730000000000
C7     C      0.06260000000000     0.08650000000000     0.39270000000000
C8     C      0.21600000000000     0.83800000000000     0.77820000000000
C8     C      0.78400000000000     0.16200000000000     0.22180000000000
C8     C      0.78400000000000     0.33800000000000     0.72180000000000
C8     C      0.21600000000000     0.66200000000000     0.27820000000000
O9     O      0.29080000000000     0.01010000000000     0.73100000000000
O9     O      0.70920000000000     0.98990000000000     0.26900000000000
O9     O      0.70920000000000     0.51010000000000     0.76900000000000
O9     O      0.29080000000000     0.48990000000000     0.23100000000000
O10    O      0.12570000000000     0.83050000000000     0.78480000000000
O10    O      0.87430000000000     0.16950000000000     0.21520000000000
O10    O      0.87430000000000     0.33050000000000     0.71520000000000
O10    O      0.12570000000000     0.66950000000000     0.28480000000000
C11    C      0.42630000000000     0.48480000000000     0.60470000000000
C11    C      0.57370000000000     0.51520000000000     0.39530000000000
C11    C      0.57370000000000     0.98480000000000     0.89530000000000
C11    C      0.42630000000000     0.01520000000000     0.10470000000000
C12    C      0.32510000000000     0.51120000000000     0.60340000000000
C12    C      0.67490000000000     0.48880000000000     0.39660000000000
C12    C      0.67490000000000     0.01120000000000     0.89660000000000
C12    C      0.32510000000000     0.98880000000000     0.10340000000000
N13    N      0.24610000000000     0.33850000000000     0.65100000000000
N13    N      0.75390000000000     0.66150000000000     0.34900000000000
N13    N      0.75390000000000     0.83850000000000     0.84900000000000
N13    N      0.24610000000000     0.16150000000000     0.15100000000000
C14    C      0.30970000000000     0.70190000000000     0.55600000000000
C14    C      0.69030000000000     0.29810000000000     0.44400000000000
C14    C      0.69030000000000     0.20190000000000     0.94400000000000
C14    C      0.30970000000000     0.79810000000000     0.05600000000000
C15    C      0.15150000000000     0.35210000000000     0.65250000000000
C15    C      0.84850000000000     0.64790000000000     0.34750000000000
C15    C      0.84850000000000     0.85210000000000     0.84750000000000
C15    C      0.15150000000000     0.14790000000000     0.15250000000000
C16    C      0.21000000000000     0.70160000000000     0.56150000000000
C16    C      0.79000000000000     0.29840000000000     0.43850000000000
C16    C      0.79000000000000     0.20160000000000     0.93850000000000
C16    C      0.21000000000000     0.79840000000000     0.06150000000000
N17    N      0.07540000000000     0.17680000000000     0.70070000000000
N17    N      0.92460000000000     0.82320000000000     0.29930000000000
N17    N      0.92460000000000     0.67680000000000     0.79930000000000
N17    N      0.07540000000000     0.32320000000000     0.20070000000000
N18    N      0.13140000000000     0.53220000000000     0.60820000000000
N18    N      0.86860000000000     0.46780000000000     0.39180000000000
N18    N      0.86860000000000     0.03220000000000     0.89180000000000
N18    N      0.13140000000000     0.96780000000000     0.10820000000000
H19    H      0.40130000000000     0.82740000000000     0.77110000000000
H19    H      0.59870000000000     0.17260000000000     0.22890000000000
H19    H      0.59870000000000     0.32740000000000     0.72890000000000
H19    H      0.40130000000000     0.67260000000000     0.27110000000000
H20    H      0.46250000000000     0.51910000000000     0.84500000000000
H20    H      0.53750000000000     0.48090000000000     0.15500000000000
H20    H      0.53750000000000     0.01910000000000     0.65500000000000
H20    H      0.46250000000000     0.98090000000000     0.34500000000000
H21    H      0.33590000000000     0.16630000000000     0.94030000000000
H21    H      0.66410000000000     0.83370000000000     0.05970000000000
H21    H      0.66410000000000     0.66630000000000     0.55970000000000
H21    H      0.33590000000000     0.33370000000000     0.44030000000000
H22    H      0.15350000000000     0.12640000000000     0.96000000000000
H22    H      0.84650000000000     0.87360000000000     0.04000000000000
H22    H      0.84650000000000     0.62640000000000     0.54000000000000
H22    H      0.15350000000000     0.37360000000000     0.46000000000000
H23    H      0.02220000000000     0.24650000000000     0.93690000000000
H23    H      0.97780000000000     0.75350000000000     0.06310000000000
H23    H      0.97780000000000     0.74650000000000     0.56310000000000
H23    H      0.02220000000000     0.25350000000000     0.43690000000000
H24    H      0.01860000000000     0.62450000000000     0.90980000000000
H24    H      0.98140000000000     0.37550000000000     0.09020000000000
H24    H      0.98140000000000     0.12450000000000     0.59020000000000
H24    H      0.01860000000000     0.87550000000000     0.40980000000000
H25    H      0.05860000000000     0.34560000000000     0.84240000000000
H25    H      0.94140000000000     0.65440000000000     0.15760000000000
H25    H      0.94140000000000     0.84560000000000     0.65760000000000
H25    H      0.05860000000000     0.15440000000000     0.34240000000000
H26    H      0.26500000000000     0.15110000000000     0.69710000000000
H26    H      0.73500000000000     0.84890000000000     0.30290000000000
H26    H      0.73500000000000     0.65110000000000     0.80290000000000
H26    H      0.26500000000000     0.34890000000000     0.19710000000000
H27    H      0.48630000000000     0.63410000000000     0.56390000000000
H27    H      0.51370000000000     0.36590000000000     0.43610000000000
H27    H      0.51370000000000     0.13410000000000     0.93610000000000
H27    H      0.48630000000000     0.86590000000000     0.06390000000000
H28    H      0.41520000000000     0.53680000000000     0.66060000000000
H28    H      0.58480000000000     0.46320000000000     0.33940000000000
H28    H      0.58480000000000     0.03680000000000     0.83940000000000
H28    H      0.41520000000000     0.96320000000000     0.16060000000000
H29    H      0.45540000000000     0.25410000000000     0.59280000000000
H29    H      0.54460000000000     0.74590000000000     0.40720000000000
H29    H      0.54460000000000     0.75410000000000     0.90720000000000
H29    H      0.45540000000000     0.24590000000000     0.09280000000000
H30    H      0.37300000000000     0.84490000000000     0.51690000000000
H30    H      0.62700000000000     0.15510000000000     0.48310000000000
H30    H      0.62700000000000     0.34490000000000     0.98310000000000
H30    H      0.37300000000000     0.65510000000000     0.01690000000000
H31    H      0.19290000000000     0.84770000000000     0.52570000000000
H31    H      0.80710000000000     0.15230000000000     0.47430000000000
H31    H      0.80710000000000     0.34770000000000     0.97430000000000
H31    H      0.19290000000000     0.65230000000000     0.02570000000000
H32    H      0.08990000000000     0.03360000000000     0.73570000000000
H32    H      0.91010000000000     0.96640000000000     0.26430000000000
H32    H      0.91010000000000     0.53360000000000     0.76430000000000
H32    H      0.08990000000000     0.46640000000000     0.23570000000000
H33    H      0.00460000000000     0.18810000000000     0.70140000000000
H33    H      0.99540000000000     0.81190000000000     0.29860000000000
H33    H      0.99540000000000     0.68810000000000     0.79860000000000
H33    H      0.00460000000000     0.31190000000000     0.20140000000000
