data_default
_cell_volume           587.859980
_symmetry_space_group_name_H-M 'P 1'
_symmetry_Int_Tables_number 1
loop_
_symmetry_equiv_pos_site_id
_symmetry_equiv_pos_as_xyz
1 x,y,z
_cell_length_a         7.5340000000
_cell_length_b         7.1950000000
_cell_length_c        13.9000000000
_cell_angle_alpha       124.9900
_cell_angle_beta       107.5900
_cell_angle_gamma        78.0200
_cell_formula_units_Z 1
loop_
_atom_site_label
_atom_site_type_symbol
_atom_site_fract_x
_atom_site_fract_y
_atom_site_fract_z
C1     C      0.24460000000000     0.01070000000000     0.87600000000000
C1     C      0.75540000000000     0.98930000000000     0.12400000000000
C2     C      0.15850000000000     0.22260000000000     0.90430000000000
C2     C      0.84150000000000     0.77740000000000     0.09570000000000
C3     C      0.12490000000000     0.29140000000000     0.82520000000000
C3     C      0.87510000000000     0.70860000000000     0.17480000000000
C4     C      0.17810000000000     0.14600000000000     0.71580000000000
C4     C      0.82190000000000     0.85400000000000     0.28420000000000
C5     C      0.26360000000000     0.93540000000000     0.68740000000000
C5     C      0.73640000000000     0.06460000000000     0.31260000000000
C6     C      0.29910000000000     0.86190000000000     0.76550000000000
C6     C      0.70090000000000     0.13810000000000     0.23450000000000
C7     C      0.39110000000000     0.63380000000000     0.72810000000000
C7     C      0.60890000000000     0.36620000000000     0.27190000000000
C8     C      0.27530000000000     0.95000000000000     0.96510000000000
C8     C      0.72470000000000     0.05000000000000     0.03490000000000
O9     O      0.21780000000000     0.10370000000000     0.06320000000000
O9     O      0.78220000000000     0.89630000000000     0.93680000000000
O10    O      0.35110000000000     0.76390000000000     0.94600000000000
O10    O      0.64890000000000     0.23610000000000     0.05400000000000
C11    C      0.11850000000000     0.38300000000000     0.32200000000000
C11    C      0.88150000000000     0.61700000000000     0.67800000000000
C12    C      0.20440000000000     0.17440000000000     0.31790000000000
C12    C      0.79560000000000     0.82560000000000     0.68210000000000
N13    N      0.26560000000000     0.01170000000000     0.21860000000000
N13    N      0.73440000000000     0.98830000000000     0.78140000000000
C14    C      0.22320000000000     0.14230000000000     0.40990000000000
C14    C      0.77680000000000     0.85770000000000     0.59010000000000
C15    C      0.34580000000000     0.81650000000000     0.20940000000000
C15    C      0.65420000000000     0.18350000000000     0.79060000000000
C16    C      0.30720000000000     0.93670000000000     0.39280000000000
C16    C      0.69280000000000     0.06330000000000     0.60720000000000
N17    N      0.40440000000000     0.65980000000000     0.10930000000000
N17    N      0.59560000000000     0.34020000000000     0.89070000000000
N18    N      0.36820000000000     0.77450000000000     0.29540000000000
N18    N      0.63180000000000     0.22550000000000     0.70460000000000
H19    H      0.11870000000000     0.33180000000000     0.99130000000000
H19    H      0.88130000000000     0.66820000000000     0.00870000000000
H20    H      0.05740000000000     0.45780000000000     0.84860000000000
H20    H      0.94260000000000     0.54220000000000     0.15140000000000
H21    H      0.15300000000000     0.19700000000000     0.65190000000000
H21    H      0.84700000000000     0.80300000000000     0.34810000000000
H22    H      0.30540000000000     0.82120000000000     0.60110000000000
H22    H      0.69460000000000     0.17880000000000     0.39890000000000
H23    H      0.42000000000000     0.55030000000000     0.63840000000000
H23    H      0.58000000000000     0.44970000000000     0.36160000000000
H24    H      0.52250000000000     0.64440000000000     0.79340000000000
H24    H      0.47750000000000     0.35560000000000     0.20660000000000
H25    H      0.30480000000000     0.52440000000000     0.72590000000000
H25    H      0.69520000000000     0.47560000000000     0.27410000000000
H26    H      0.24390000000000     0.05080000000000     0.12870000000000
H26    H      0.75610000000000     0.94920000000000     0.87130000000000
H27    H      0.07220000000000     0.50660000000000     0.40630000000000
H27    H      0.92780000000000     0.49340000000000     0.59370000000000
H28    H      0.21830000000000     0.46270000000000     0.31340000000000
H28    H      0.78170000000000     0.53730000000000     0.68660000000000
H29    H      0.99810000000000     0.34140000000000     0.24490000000000
H29    H      0.00190000000000     0.65860000000000     0.75510000000000
H30    H      0.17430000000000     0.27280000000000     0.49180000000000
H30    H      0.82570000000000     0.72720000000000     0.50820000000000
H31    H      0.32610000000000     0.90130000000000     0.46260000000000
H31    H      0.67390000000000     0.09870000000000     0.53740000000000
H32    H      0.38770000000000     0.69020000000000     0.04080000000000
H32    H      0.61230000000000     0.30980000000000     0.95920000000000
H33    H      0.46440000000000     0.51390000000000     0.10300000000000
H33    H      0.53560000000000     0.48610000000000     0.89700000000000
