data_default
_cell_volume          1247.447428
_symmetry_space_group_name_H-M 'P 1'
_symmetry_Int_Tables_number 1
loop_
_symmetry_equiv_pos_site_id
_symmetry_equiv_pos_as_xyz
1 x,y,z
_cell_length_a        14.4919000000
_cell_length_b        11.5671000000
_cell_length_c         7.4482000000
_cell_angle_alpha        90.0000
_cell_angle_beta        92.3930
_cell_angle_gamma        90.0000
_cell_formula_units_Z 1
loop_
_atom_site_label
_atom_site_type_symbol
_atom_site_fract_x
_atom_site_fract_y
_atom_site_fract_z
N1     N      0.08191000000000     0.79725000000000     0.41921000000000
N1     N      0.91809000000000     0.29725000000000     0.08079000000000
N1     N      0.91809000000000     0.20275000000000     0.58079000000000
N1     N      0.08191000000000     0.70275000000000     0.91921000000000
C2     C      0.01834000000000     0.87533000000000     0.36319000000000
C2     C      0.98166000000000     0.37533000000000     0.13681000000000
C2     C      0.98166000000000     0.12467000000000     0.63681000000000
C2     C      0.01834000000000     0.62467000000000     0.86319000000000
C3     C      0.92872000000000     0.84318000000000     0.31637000000000
C3     C      0.07128000000000     0.34318000000000     0.18363000000000
C3     C      0.07128000000000     0.15682000000000     0.68363000000000
C3     C      0.92872000000000     0.65682000000000     0.81637000000000
C4     C      0.90575000000000     0.72747000000000     0.33061000000000
C4     C      0.09425000000000     0.22747000000000     0.16939000000000
C4     C      0.09425000000000     0.27253000000000     0.66939000000000
C4     C      0.90575000000000     0.77253000000000     0.83061000000000
N5     N      0.96806000000000     0.64771000000000     0.38432000000000
N5     N      0.03194000000000     0.14771000000000     0.11568000000000
N5     N      0.03194000000000     0.35229000000000     0.61568000000000
N5     N      0.96806000000000     0.85229000000000     0.88432000000000
C6     C      0.05414000000000     0.68634000000000     0.42917000000000
C6     C      0.94586000000000     0.18634000000000     0.07083000000000
C6     C      0.94586000000000     0.31366000000000     0.57083000000000
C6     C      0.05414000000000     0.81366000000000     0.92917000000000
H7     H      0.88030000000000     0.90252000000000     0.27406000000000
H7     H      0.11970000000000     0.40252000000000     0.22594000000000
H7     H      0.11970000000000     0.09748000000000     0.72594000000000
H7     H      0.88030000000000     0.59748000000000     0.77406000000000
N8     N      0.11656000000000     0.60811000000000     0.49097000000000
N8     N      0.88344000000000     0.10811000000000     0.00903000000000
N8     N      0.88344000000000     0.39189000000000     0.50903000000000
N8     N      0.11656000000000     0.89189000000000     0.99097000000000
H9     H      0.09977000000000     0.52244000000000     0.49758000000000
H9     H      0.90023000000000     0.02244000000000     0.00242000000000
H9     H      0.90023000000000     0.47756000000000     0.50242000000000
H9     H      0.09977000000000     0.97756000000000     0.99758000000000
H10    H      0.18080000000000     0.63614000000000     0.53271000000000
H10    H      0.81920000000000     0.13614000000000     0.96729000000000
H10    H      0.81920000000000     0.36386000000000     0.46729000000000
H10    H      0.18080000000000     0.86386000000000     0.03271000000000
C11    C      0.80999000000000     0.68500000000000     0.28284000000000
C11    C      0.19001000000000     0.18500000000000     0.21716000000000
C11    C      0.19001000000000     0.31500000000000     0.71716000000000
C11    C      0.80999000000000     0.81500000000000     0.78284000000000
H12    H      0.78305000000000     0.64614000000000     0.39218000000000
H12    H      0.21695000000000     0.14614000000000     0.10782000000000
H12    H      0.21695000000000     0.35386000000000     0.60782000000000
H12    H      0.78305000000000     0.85386000000000     0.89218000000000
H13    H      0.76786000000000     0.75188000000000     0.24283000000000
H13    H      0.23214000000000     0.25188000000000     0.25717000000000
H13    H      0.23214000000000     0.24812000000000     0.75717000000000
H13    H      0.76786000000000     0.74812000000000     0.74283000000000
H14    H      0.81229000000000     0.62631000000000     0.18056000000000
H14    H      0.18771000000000     0.12631000000000     0.31944000000000
H14    H      0.18771000000000     0.37369000000000     0.81944000000000
H14    H      0.81229000000000     0.87369000000000     0.68056000000000
H15    H      0.03684000000000     0.96043000000000     0.35753000000000
H15    H      0.96316000000000     0.46043000000000     0.14247000000000
H15    H      0.96316000000000     0.03957000000000     0.64247000000000
H15    H      0.03684000000000     0.53957000000000     0.85753000000000
O16    O      0.29251000000000     0.70622000000000     0.57943000000000
O16    O      0.70749000000000     0.20622000000000     0.92057000000000
O16    O      0.70749000000000     0.29378000000000     0.42057000000000
O16    O      0.29251000000000     0.79378000000000     0.07943000000000
C17    C      0.31152000000000     0.80887000000000     0.56516000000000
C17    C      0.68848000000000     0.30887000000000     0.93484000000000
C17    C      0.68848000000000     0.19113000000000     0.43484000000000
C17    C      0.31152000000000     0.69113000000000     0.06516000000000
O18    O      0.25177000000000     0.88615000000000     0.49949000000000
O18    O      0.74823000000000     0.38615000000000     0.00051000000000
O18    O      0.74823000000000     0.11385000000000     0.50051000000000
O18    O      0.25177000000000     0.61385000000000     0.99949000000000
H19    H      0.18672000000000     0.85883000000000     0.46206000000000
H19    H      0.81328000000000     0.35883000000000     0.03794000000000
H19    H      0.81328000000000     0.14117000000000     0.53794000000000
H19    H      0.18672000000000     0.64117000000000     0.96206000000000
C20    C      0.40428000000000     0.85439000000000     0.61763000000000
C20    C      0.59572000000000     0.35439000000000     0.88237000000000
C20    C      0.59572000000000     0.14561000000000     0.38237000000000
C20    C      0.40428000000000     0.64561000000000     0.11763000000000
C21    C      0.48134000000000     0.79612000000000     0.55615000000000
C21    C      0.51866000000000     0.29612000000000     0.94385000000000
C21    C      0.51866000000000     0.20388000000000     0.44385000000000
C21    C      0.48134000000000     0.70388000000000     0.05615000000000
C22    C      0.56942000000000     0.83575000000000     0.59704000000000
C22    C      0.43058000000000     0.33575000000000     0.90296000000000
C22    C      0.43058000000000     0.16425000000000     0.40296000000000
C22    C      0.56942000000000     0.66425000000000     0.09704000000000
C23    C      0.58286000000000     0.93455000000000     0.70351000000000
C23    C      0.41714000000000     0.43455000000000     0.79649000000000
C23    C      0.41714000000000     0.06545000000000     0.29649000000000
C23    C      0.58286000000000     0.56545000000000     0.20351000000000
C24    C      0.50591000000000     0.99225000000000     0.76738000000000
C24    C      0.49409000000000     0.49225000000000     0.73262000000000
C24    C      0.49409000000000     0.00775000000000     0.23262000000000
C24    C      0.50591000000000     0.50775000000000     0.26738000000000
C25    C      0.41732000000000     0.95285000000000     0.72435000000000
C25    C      0.58268000000000     0.45285000000000     0.77565000000000
C25    C      0.58268000000000     0.04715000000000     0.27565000000000
C25    C      0.41732000000000     0.54715000000000     0.22435000000000
H26    H      0.47342000000000     0.72375000000000     0.47833000000000
H26    H      0.52658000000000     0.22375000000000     0.02167000000000
H26    H      0.52658000000000     0.27625000000000     0.52167000000000
H26    H      0.47342000000000     0.77625000000000     0.97833000000000
H27    H      0.62508000000000     0.79278000000000     0.54993000000000
H27    H      0.37492000000000     0.29278000000000     0.95007000000000
H27    H      0.37492000000000     0.20722000000000     0.45007000000000
H27    H      0.62508000000000     0.70722000000000     0.04993000000000
H28    H      0.64807000000000     0.96404000000000     0.73453000000000
H28    H      0.35193000000000     0.46404000000000     0.76547000000000
H28    H      0.35193000000000     0.03596000000000     0.26547000000000
H28    H      0.64807000000000     0.53596000000000     0.23453000000000
H29    H      0.51588000000000     0.06415000000000     0.84554000000000
H29    H      0.48412000000000     0.56415000000000     0.65446000000000
H29    H      0.48412000000000     0.93585000000000     0.15446000000000
H29    H      0.51588000000000     0.43585000000000     0.34554000000000
C30    C      0.33492000000000     0.01649000000000     0.79295000000000
C30    C      0.66508000000000     0.51649000000000     0.70705000000000
C30    C      0.66508000000000     0.98351000000000     0.20705000000000
C30    C      0.33492000000000     0.48351000000000     0.29295000000000
H31    H      0.35677000000000     0.08181000000000     0.87677000000000
H31    H      0.64323000000000     0.58181000000000     0.62323000000000
H31    H      0.64323000000000     0.91819000000000     0.12323000000000
H31    H      0.35677000000000     0.41819000000000     0.37677000000000
H32    H      0.29711000000000     0.05359000000000     0.68932000000000
H32    H      0.70289000000000     0.55359000000000     0.81068000000000
H32    H      0.70289000000000     0.94641000000000     0.31068000000000
H32    H      0.29711000000000     0.44641000000000     0.18932000000000
H33    H      0.29488000000000     0.96254000000000     0.86550000000000
H33    H      0.70512000000000     0.46254000000000     0.63450000000000
H33    H      0.70512000000000     0.03746000000000     0.13450000000000
H33    H      0.29488000000000     0.53746000000000     0.36550000000000
