data_default
_cell_volume          2492.466289
_symmetry_space_group_name_H-M 'P 1'
_symmetry_Int_Tables_number 1
loop_
_symmetry_equiv_pos_site_id
_symmetry_equiv_pos_as_xyz
1 x,y,z
_cell_length_a        11.7281000000
_cell_length_b         7.2141000000
_cell_length_c        29.4591000000
_cell_angle_alpha        90.0000
_cell_angle_beta        90.0000
_cell_angle_gamma        90.0000
_cell_formula_units_Z 1
loop_
_atom_site_label
_atom_site_type_symbol
_atom_site_fract_x
_atom_site_fract_y
_atom_site_fract_z
N1     N      0.21168000000000     0.91305000000000     0.46098000000000
N1     N      0.78832000000000     0.41305000000000     0.03902000000000
N1     N      0.71168000000000     0.58695000000000     0.53902000000000
N1     N      0.28832000000000     0.08695000000000     0.96098000000000
N1     N      0.78832000000000     0.08695000000000     0.53902000000000
N1     N      0.21168000000000     0.58695000000000     0.96098000000000
N1     N      0.28832000000000     0.41305000000000     0.46098000000000
N1     N      0.71168000000000     0.91305000000000     0.03902000000000
C2     C      0.13358000000000     0.86528000000000     0.49225000000000
C2     C      0.86642000000000     0.36528000000000     0.00775000000000
C2     C      0.63358000000000     0.63472000000000     0.50775000000000
C2     C      0.36642000000000     0.13472000000000     0.99225000000000
C2     C      0.86642000000000     0.13472000000000     0.50775000000000
C2     C      0.13358000000000     0.63472000000000     0.99225000000000
C2     C      0.36642000000000     0.36528000000000     0.49225000000000
C2     C      0.63358000000000     0.86528000000000     0.00775000000000
C3     C      0.16458000000000     0.82043000000000     0.53615000000000
C3     C      0.83542000000000     0.32043000000000     0.96385000000000
C3     C      0.66458000000000     0.67957000000000     0.46385000000000
C3     C      0.33542000000000     0.17957000000000     0.03615000000000
C3     C      0.83542000000000     0.17957000000000     0.46385000000000
C3     C      0.16458000000000     0.67957000000000     0.03615000000000
C3     C      0.33542000000000     0.32043000000000     0.53615000000000
C3     C      0.66458000000000     0.82043000000000     0.96385000000000
C4     C      0.27917000000000     0.82794000000000     0.54725000000000
C4     C      0.72083000000000     0.32794000000000     0.95275000000000
C4     C      0.77917000000000     0.67206000000000     0.45275000000000
C4     C      0.22083000000000     0.17206000000000     0.04725000000000
C4     C      0.72083000000000     0.17206000000000     0.45275000000000
C4     C      0.27917000000000     0.67206000000000     0.04725000000000
C4     C      0.22083000000000     0.32794000000000     0.54725000000000
C4     C      0.77917000000000     0.82794000000000     0.95275000000000
N5     N      0.35886000000000     0.87330000000000     0.51659000000000
N5     N      0.64114000000000     0.37330000000000     0.98341000000000
N5     N      0.85886000000000     0.62670000000000     0.48341000000000
N5     N      0.14114000000000     0.12670000000000     0.01659000000000
N5     N      0.64114000000000     0.12670000000000     0.48341000000000
N5     N      0.35886000000000     0.62670000000000     0.01659000000000
N5     N      0.14114000000000     0.37330000000000     0.51659000000000
N5     N      0.85886000000000     0.87330000000000     0.98341000000000
C6     C      0.32146000000000     0.91683000000000     0.47444000000000
C6     C      0.67854000000000     0.41683000000000     0.02556000000000
C6     C      0.82146000000000     0.58317000000000     0.52556000000000
C6     C      0.17854000000000     0.08317000000000     0.97444000000000
C6     C      0.67854000000000     0.08317000000000     0.52556000000000
C6     C      0.32146000000000     0.58317000000000     0.97444000000000
C6     C      0.17854000000000     0.41683000000000     0.47444000000000
C6     C      0.82146000000000     0.91683000000000     0.02556000000000
H7     H      0.10523000000000     0.78439000000000     0.55997000000000
H7     H      0.89477000000000     0.28439000000000     0.94003000000000
H7     H      0.60523000000000     0.71561000000000     0.44003000000000
H7     H      0.39477000000000     0.21561000000000     0.05997000000000
H7     H      0.89477000000000     0.21561000000000     0.44003000000000
H7     H      0.10523000000000     0.71561000000000     0.05997000000000
H7     H      0.39477000000000     0.28439000000000     0.55997000000000
H7     H      0.60523000000000     0.78439000000000     0.94003000000000
N8     N      0.39986000000000     0.97064000000000     0.44375000000000
N8     N      0.60014000000000     0.47064000000000     0.05625000000000
N8     N      0.89986000000000     0.52936000000000     0.55625000000000
N8     N      0.10014000000000     0.02936000000000     0.94375000000000
N8     N      0.60014000000000     0.02936000000000     0.55625000000000
N8     N      0.39986000000000     0.52936000000000     0.94375000000000
N8     N      0.10014000000000     0.47064000000000     0.44375000000000
N8     N      0.89986000000000     0.97064000000000     0.05625000000000
H9     H      0.48459000000000     0.97214000000000     0.45185000000000
H9     H      0.51541000000000     0.47214000000000     0.04815000000000
H9     H      0.98459000000000     0.52786000000000     0.54815000000000
H9     H      0.01541000000000     0.02786000000000     0.95185000000000
H9     H      0.51541000000000     0.02786000000000     0.54815000000000
H9     H      0.48459000000000     0.52786000000000     0.95185000000000
H9     H      0.01541000000000     0.47214000000000     0.45185000000000
H9     H      0.98459000000000     0.97214000000000     0.04815000000000
H10    H      0.37298000000000     0.01160000000000     0.41231000000000
H10    H      0.62702000000000     0.51160000000000     0.08769000000000
H10    H      0.87298000000000     0.48840000000000     0.58769000000000
H10    H      0.12702000000000     0.98840000000000     0.91231000000000
H10    H      0.62702000000000     0.98840000000000     0.58769000000000
H10    H      0.37298000000000     0.48840000000000     0.91231000000000
H10    H      0.12702000000000     0.51160000000000     0.41231000000000
H10    H      0.87298000000000     0.01160000000000     0.08769000000000
C11    C      0.32035000000000     0.78175000000000     0.59414000000000
C11    C      0.67965000000000     0.28175000000000     0.90586000000000
C11    C      0.82035000000000     0.71825000000000     0.40586000000000
C11    C      0.17965000000000     0.21825000000000     0.09414000000000
C11    C      0.67965000000000     0.21825000000000     0.40586000000000
C11    C      0.32035000000000     0.71825000000000     0.09414000000000
C11    C      0.17965000000000     0.28175000000000     0.59414000000000
C11    C      0.82035000000000     0.78175000000000     0.90586000000000
H12    H      0.36209000000000     0.89336000000000     0.60757000000000
H12    H      0.63791000000000     0.39336000000000     0.89243000000000
H12    H      0.86209000000000     0.60664000000000     0.39243000000000
H12    H      0.13791000000000     0.10664000000000     0.10757000000000
H12    H      0.63791000000000     0.10664000000000     0.39243000000000
H12    H      0.36209000000000     0.60664000000000     0.10757000000000
H12    H      0.13791000000000     0.39336000000000     0.60757000000000
H12    H      0.86209000000000     0.89336000000000     0.89243000000000
H13    H      0.25360000000000     0.74824000000000     0.61489000000000
H13    H      0.74640000000000     0.24824000000000     0.88511000000000
H13    H      0.75360000000000     0.75176000000000     0.38511000000000
H13    H      0.24640000000000     0.25176000000000     0.11489000000000
H13    H      0.74640000000000     0.25176000000000     0.38511000000000
H13    H      0.25360000000000     0.75176000000000     0.11489000000000
H13    H      0.24640000000000     0.24824000000000     0.61489000000000
H13    H      0.75360000000000     0.74824000000000     0.88511000000000
H14    H      0.37512000000000     0.67173000000000     0.59267000000000
H14    H      0.62488000000000     0.17173000000000     0.90733000000000
H14    H      0.87512000000000     0.82827000000000     0.40733000000000
H14    H      0.12488000000000     0.32827000000000     0.09267000000000
H14    H      0.62488000000000     0.32827000000000     0.40733000000000
H14    H      0.37512000000000     0.82827000000000     0.09267000000000
H14    H      0.12488000000000     0.17173000000000     0.59267000000000
H14    H      0.87512000000000     0.67173000000000     0.90733000000000
H15    H      0.04943000000000     0.86460000000000     0.48331000000000
H15    H      0.95057000000000     0.36460000000000     0.01669000000000
H15    H      0.54943000000000     0.63540000000000     0.51669000000000
H15    H      0.45057000000000     0.13540000000000     0.98331000000000
H15    H      0.95057000000000     0.13540000000000     0.51669000000000
H15    H      0.04943000000000     0.63540000000000     0.98331000000000
H15    H      0.45057000000000     0.36460000000000     0.48331000000000
H15    H      0.54943000000000     0.86460000000000     0.01669000000000
O16    O      0.30449000000000     0.05712000000000     0.35758000000000
O16    O      0.69551000000000     0.55712000000000     0.14242000000000
O16    O      0.80449000000000     0.44288000000000     0.64242000000000
O16    O      0.19551000000000     0.94288000000000     0.85758000000000
O16    O      0.69551000000000     0.94288000000000     0.64242000000000
O16    O      0.30449000000000     0.44288000000000     0.85758000000000
O16    O      0.19551000000000     0.55712000000000     0.35758000000000
O16    O      0.80449000000000     0.05712000000000     0.14242000000000
C17    C      0.20272000000000     0.04990000000000     0.34847000000000
C17    C      0.79728000000000     0.54990000000000     0.15153000000000
C17    C      0.70272000000000     0.45010000000000     0.65153000000000
C17    C      0.29728000000000     0.95010000000000     0.84847000000000
C17    C      0.79728000000000     0.95010000000000     0.65153000000000
C17    C      0.20272000000000     0.45010000000000     0.84847000000000
C17    C      0.29728000000000     0.54990000000000     0.34847000000000
C17    C      0.70272000000000     0.04990000000000     0.15153000000000
O18    O      0.12503000000000     0.99255000000000     0.37790000000000
O18    O      0.87497000000000     0.49255000000000     0.12210000000000
O18    O      0.62503000000000     0.50745000000000     0.62210000000000
O18    O      0.37497000000000     0.00745000000000     0.87790000000000
O18    O      0.87497000000000     0.00745000000000     0.62210000000000
O18    O      0.12503000000000     0.50745000000000     0.87790000000000
O18    O      0.37497000000000     0.49255000000000     0.37790000000000
O18    O      0.62503000000000     0.99255000000000     0.12210000000000
H19    H      0.15136000000000     0.95578000000000     0.40972000000000
H19    H      0.84864000000000     0.45578000000000     0.09028000000000
H19    H      0.65136000000000     0.54422000000000     0.59028000000000
H19    H      0.34864000000000     0.04422000000000     0.90972000000000
H19    H      0.84864000000000     0.04422000000000     0.59028000000000
H19    H      0.15136000000000     0.54422000000000     0.90972000000000
H19    H      0.34864000000000     0.45578000000000     0.40972000000000
H19    H      0.65136000000000     0.95578000000000     0.09028000000000
C20    C      0.15868000000000     0.10195000000000     0.30311000000000
C20    C      0.84132000000000     0.60195000000000     0.19689000000000
C20    C      0.65868000000000     0.39805000000000     0.69689000000000
C20    C      0.34132000000000     0.89805000000000     0.80311000000000
C20    C      0.84132000000000     0.89805000000000     0.69689000000000
C20    C      0.15868000000000     0.39805000000000     0.80311000000000
C20    C      0.34132000000000     0.60195000000000     0.30311000000000
C20    C      0.65868000000000     0.10195000000000     0.19689000000000
C21    C      0.22790000000000     0.06832000000000     0.26538000000000
C21    C      0.77210000000000     0.56832000000000     0.23462000000000
C21    C      0.72790000000000     0.43168000000000     0.73462000000000
C21    C      0.27210000000000     0.93168000000000     0.76538000000000
C21    C      0.77210000000000     0.93168000000000     0.73462000000000
C21    C      0.22790000000000     0.43168000000000     0.76538000000000
C21    C      0.27210000000000     0.56832000000000     0.26538000000000
C21    C      0.72790000000000     0.06832000000000     0.23462000000000
C22    C      0.19067000000000     0.10983000000000     0.22219000000000
C22    C      0.80933000000000     0.60983000000000     0.27781000000000
C22    C      0.69067000000000     0.39017000000000     0.77781000000000
C22    C      0.30933000000000     0.89017000000000     0.72219000000000
C22    C      0.80933000000000     0.89017000000000     0.77781000000000
C22    C      0.19067000000000     0.39017000000000     0.72219000000000
C22    C      0.30933000000000     0.60983000000000     0.22219000000000
C22    C      0.69067000000000     0.10983000000000     0.27781000000000
C23    C      0.08298000000000     0.18916000000000     0.21562000000000
C23    C      0.91702000000000     0.68916000000000     0.28438000000000
C23    C      0.58298000000000     0.31084000000000     0.78438000000000
C23    C      0.41702000000000     0.81084000000000     0.71562000000000
C23    C      0.91702000000000     0.81084000000000     0.78438000000000
C23    C      0.08298000000000     0.31084000000000     0.71562000000000
C23    C      0.41702000000000     0.68916000000000     0.21562000000000
C23    C      0.58298000000000     0.18916000000000     0.28438000000000
C24    C      0.01401000000000     0.22538000000000     0.25337000000000
C24    C      0.98599000000000     0.72538000000000     0.24663000000000
C24    C      0.51401000000000     0.27462000000000     0.74663000000000
C24    C      0.48599000000000     0.77462000000000     0.75337000000000
C24    C      0.98599000000000     0.77462000000000     0.74663000000000
C24    C      0.01401000000000     0.27462000000000     0.75337000000000
C24    C      0.48599000000000     0.72538000000000     0.25337000000000
C24    C      0.51401000000000     0.22538000000000     0.24663000000000
C25    C      0.05126000000000     0.18157000000000     0.29676000000000
C25    C      0.94874000000000     0.68157000000000     0.20324000000000
C25    C      0.55126000000000     0.31843000000000     0.70324000000000
C25    C      0.44874000000000     0.81843000000000     0.79676000000000
C25    C      0.94874000000000     0.81843000000000     0.70324000000000
C25    C      0.05126000000000     0.31843000000000     0.79676000000000
C25    C      0.44874000000000     0.68157000000000     0.29676000000000
C25    C      0.55126000000000     0.18157000000000     0.20324000000000
H26    H      0.30690000000000     0.01066000000000     0.26925000000000
H26    H      0.69310000000000     0.51066000000000     0.23075000000000
H26    H      0.80690000000000     0.48934000000000     0.73075000000000
H26    H      0.19310000000000     0.98934000000000     0.76925000000000
H26    H      0.69310000000000     0.98934000000000     0.73075000000000
H26    H      0.30690000000000     0.48934000000000     0.76925000000000
H26    H      0.19310000000000     0.51066000000000     0.26925000000000
H26    H      0.80690000000000     0.01066000000000     0.23075000000000
H27    H      0.24185000000000     0.08309000000000     0.19489000000000
H27    H      0.75815000000000     0.58309000000000     0.30511000000000
H27    H      0.74185000000000     0.41691000000000     0.80511000000000
H27    H      0.25815000000000     0.91691000000000     0.69489000000000
H27    H      0.75815000000000     0.91691000000000     0.80511000000000
H27    H      0.24185000000000     0.41691000000000     0.69489000000000
H27    H      0.25815000000000     0.58309000000000     0.19489000000000
H27    H      0.74185000000000     0.08309000000000     0.30511000000000
H28    H      0.05517000000000     0.22060000000000     0.18365000000000
H28    H      0.94483000000000     0.72060000000000     0.31635000000000
H28    H      0.55517000000000     0.27940000000000     0.81635000000000
H28    H      0.44483000000000     0.77940000000000     0.68365000000000
H28    H      0.94483000000000     0.77940000000000     0.81635000000000
H28    H      0.05517000000000     0.27940000000000     0.68365000000000
H28    H      0.44483000000000     0.72060000000000     0.18365000000000
H28    H      0.55517000000000     0.22060000000000     0.31635000000000
H29    H      0.93557000000000     0.28381000000000     0.24852000000000
H29    H      0.06443000000000     0.78381000000000     0.25148000000000
H29    H      0.43557000000000     0.21619000000000     0.75148000000000
H29    H      0.56443000000000     0.71619000000000     0.74852000000000
H29    H      0.06443000000000     0.71619000000000     0.75148000000000
H29    H      0.93557000000000     0.21619000000000     0.74852000000000
H29    H      0.56443000000000     0.78381000000000     0.24852000000000
H29    H      0.43557000000000     0.28381000000000     0.25148000000000
C30    C      0.97559000000000     0.22000000000000     0.33715000000000
C30    C      0.02441000000000     0.72000000000000     0.16285000000000
C30    C      0.47559000000000     0.28000000000000     0.66285000000000
C30    C      0.52441000000000     0.78000000000000     0.83715000000000
C30    C      0.02441000000000     0.78000000000000     0.66285000000000
C30    C      0.97559000000000     0.28000000000000     0.83715000000000
C30    C      0.52441000000000     0.72000000000000     0.33715000000000
C30    C      0.47559000000000     0.22000000000000     0.16285000000000
H31    H      0.90363000000000     0.28778000000000     0.32679000000000
H31    H      0.09637000000000     0.78778000000000     0.17321000000000
H31    H      0.40363000000000     0.21222000000000     0.67321000000000
H31    H      0.59637000000000     0.71222000000000     0.82679000000000
H31    H      0.09637000000000     0.71222000000000     0.67321000000000
H31    H      0.90363000000000     0.21222000000000     0.82679000000000
H31    H      0.59637000000000     0.78778000000000     0.32679000000000
H31    H      0.40363000000000     0.28778000000000     0.17321000000000
H32    H      0.94992000000000     0.09912000000000     0.35208000000000
H32    H      0.05008000000000     0.59912000000000     0.14792000000000
H32    H      0.44992000000000     0.40088000000000     0.64792000000000
H32    H      0.55008000000000     0.90088000000000     0.85208000000000
H32    H      0.05008000000000     0.90088000000000     0.64792000000000
H32    H      0.94992000000000     0.40088000000000     0.85208000000000
H32    H      0.55008000000000     0.59912000000000     0.35208000000000
H32    H      0.44992000000000     0.09912000000000     0.14792000000000
H33    H      0.01599000000000     0.30381000000000     0.36002000000000
H33    H      0.98401000000000     0.80381000000000     0.13998000000000
H33    H      0.51599000000000     0.19619000000000     0.63998000000000
H33    H      0.48401000000000     0.69619000000000     0.86002000000000
H33    H      0.98401000000000     0.69619000000000     0.63998000000000
H33    H      0.01599000000000     0.19619000000000     0.86002000000000
H33    H      0.48401000000000     0.80381000000000     0.36002000000000
H33    H      0.51599000000000     0.30381000000000     0.13998000000000
