data_default
_cell_volume           636.702186
_symmetry_space_group_name_H-M 'P 1'
_symmetry_Int_Tables_number 1
loop_
_symmetry_equiv_pos_site_id
_symmetry_equiv_pos_as_xyz
1 x,y,z
_cell_length_a         7.6961000000
_cell_length_b         7.8297000000
_cell_length_c        11.9357000000
_cell_angle_alpha       101.7540
_cell_angle_beta        91.5330
_cell_angle_gamma       114.3200
_cell_formula_units_Z 1
loop_
_atom_site_label
_atom_site_type_symbol
_atom_site_fract_x
_atom_site_fract_y
_atom_site_fract_z
N1     N      0.26975000000000     0.20002000000000     0.49488000000000
N1     N      0.73025000000000     0.79998000000000     0.50512000000000
C2     C      0.39655000000000     0.21431000000000     0.41803000000000
C2     C      0.60345000000000     0.78569000000000     0.58197000000000
C3     C      0.42045000000000     0.32996000000000     0.34103000000000
C3     C      0.57955000000000     0.67004000000000     0.65897000000000
C4     C      0.31061000000000     0.43313000000000     0.34606000000000
C4     C      0.68939000000000     0.56687000000000     0.65394000000000
N5     N      0.18174000000000     0.41992000000000     0.42107000000000
N5     N      0.81826000000000     0.58008000000000     0.57893000000000
C6     C      0.16812000000000     0.30480000000000     0.49419000000000
C6     C      0.83188000000000     0.69520000000000     0.50581000000000
H7     H      0.51708000000000     0.34116000000000     0.28270000000000
H7     H      0.48292000000000     0.65884000000000     0.71730000000000
N8     N      0.04544000000000     0.29642000000000     0.57350000000000
N8     N      0.95456000000000     0.70358000000000     0.42650000000000
H9     H      0.96175000000000     0.36969000000000     0.57523000000000
H9     H      0.03825000000000     0.63031000000000     0.42477000000000
H10    H      0.03884000000000     0.21684000000000     0.63265000000000
H10    H      0.96116000000000     0.78316000000000     0.36735000000000
C11    C      0.32754000000000     0.56246000000000     0.26582000000000
C11    C      0.67246000000000     0.43754000000000     0.73418000000000
H12    H      0.36693000000000     0.70029000000000     0.31261000000000
H12    H      0.63307000000000     0.29971000000000     0.68739000000000
H13    H      0.42836000000000     0.56215000000000     0.21184000000000
H13    H      0.57164000000000     0.43785000000000     0.78816000000000
H14    H      0.19805000000000     0.51592000000000     0.21738000000000
H14    H      0.80195000000000     0.48408000000000     0.78262000000000
H15    H      0.47838000000000     0.13948000000000     0.41792000000000
H15    H      0.52162000000000     0.86052000000000     0.58208000000000
O16    O      0.07687000000000     0.09078000000000     0.73790000000000
O16    O      0.92313000000000     0.90922000000000     0.26210000000000
C17    C      0.18643000000000     0.01325000000000     0.73728000000000
C17    C      0.81357000000000     0.98675000000000     0.26272000000000
O18    O      0.29624000000000     0.00719000000000     0.65444000000000
O18    O      0.70376000000000     0.99281000000000     0.34556000000000
H19    H      0.29104000000000     0.07287000000000     0.58950000000000
H19    H      0.70896000000000     0.92713000000000     0.41050000000000
C20    C      0.20181000000000     0.91626000000000     0.82893000000000
C20    C      0.79819000000000     0.08374000000000     0.17107000000000
C21    C      0.18022000000000     0.72611000000000     0.79574000000000
C21    C      0.81978000000000     0.27389000000000     0.20426000000000
C22    C      0.19729000000000     0.62955000000000     0.87687000000000
C22    C      0.80271000000000     0.37045000000000     0.12313000000000
C23    C      0.23398000000000     0.72051000000000     0.99436000000000
C23    C      0.76602000000000     0.27949000000000     0.00564000000000
C24    C      0.25311000000000     0.91006000000000     0.02805000000000
C24    C      0.74689000000000     0.08994000000000     0.97195000000000
C25    C      0.23789000000000     0.00753000000000     0.94610000000000
C25    C      0.76211000000000     0.99247000000000     0.05390000000000
H26    H      0.15324000000000     0.65637000000000     0.71054000000000
H26    H      0.84676000000000     0.34363000000000     0.28946000000000
H27    H      0.18268000000000     0.49107000000000     0.85127000000000
H27    H      0.81732000000000     0.50893000000000     0.14873000000000
H28    H      0.24626000000000     0.64926000000000     0.05482000000000
H28    H      0.75374000000000     0.35074000000000     0.94518000000000
H29    H      0.27930000000000     0.97601000000000     0.11388000000000
H29    H      0.72070000000000     0.02399000000000     0.88612000000000
C30    C      0.26040000000000     0.21249000000000     0.98362000000000
C30    C      0.73960000000000     0.78751000000000     0.01638000000000
H31    H      0.27471000000000     0.25272000000000     0.07159000000000
H31    H      0.72529000000000     0.74728000000000     0.92841000000000
H32    H      0.38176000000000     0.30561000000000     0.95782000000000
H32    H      0.61824000000000     0.69439000000000     0.04218000000000
H33    H      0.14159000000000     0.22439000000000     0.95303000000000
H33    H      0.85841000000000     0.77561000000000     0.04697000000000
