data_default
_cell_volume           383.626881
_symmetry_space_group_name_H-M 'P 1'
_symmetry_Int_Tables_number 1
loop_
_symmetry_equiv_pos_site_id
_symmetry_equiv_pos_as_xyz
1 x,y,z
_cell_length_a         4.9141600000
_cell_length_b         7.6374500000
_cell_length_c        10.5999500000
_cell_angle_alpha        84.9980
_cell_angle_beta        78.9042
_cell_angle_gamma        79.7837
_cell_formula_units_Z 1
loop_
_atom_site_label
_atom_site_type_symbol
_atom_site_fract_x
_atom_site_fract_y
_atom_site_fract_z
C6     C      0.89052000000000     0.96715000000000     0.04468000000000
C6     C      0.10948000000000     0.03285000000000     0.95532000000000
C7     C      0.76006000000000     0.06146000000000     0.15646000000000
C7     C      0.23994000000000     0.93854000000000     0.84354000000000
C17    C      0.54048000000000     0.99536000000000     0.24612000000000
C17    C      0.45952000000000     0.00464000000000     0.75388000000000
C18    C      0.45624000000000     0.83488000000000     0.22361000000000
C18    C      0.54376000000000     0.16512000000000     0.77639000000000
I      I      0.15030000000000     0.72079000000000     0.34700000000000
I      I      0.84970000000000     0.27921000000000     0.65300000000000
C20    C      0.58483000000000     0.74362000000000     0.11277000000000
C20    C      0.41517000000000     0.25638000000000     0.88723000000000
C21    C      0.80117000000000     0.80739000000000     0.02228000000000
C21    C      0.19883000000000     0.19261000000000     0.97772000000000
C22    C      0.92971000000000     0.71523000000000     0.91031000000000
C22    C      0.07029000000000     0.28477000000000     0.08969000000000
O23    O      0.84373000000000     0.57768000000000     0.88779000000000
O23    O      0.15627000000000     0.42232000000000     0.11221000000000
C24    C      0.14914000000000     0.77868000000000     0.82123000000000
C24    C      0.85086000000000     0.22132000000000     0.17877000000000
C25    C      0.28062000000000     0.68687000000000     0.70942000000000
C25    C      0.71938000000000     0.31313000000000     0.29058000000000
C26    C      0.49864000000000     0.75034000000000     0.62224000000000
C26    C      0.50136000000000     0.24966000000000     0.37776000000000
C27    C      0.58739000000000     0.90779000000000     0.64431000000000
C27    C      0.41261000000000     0.09221000000000     0.35569000000000
H31    H      0.51881000000000     0.62812000000000     0.09876000000000
H31    H      0.48119000000000     0.37188000000000     0.90124000000000
H32    H      0.25289000000000     0.04995000000000     0.42093000000000
H32    H      0.74711000000000     0.95005000000000     0.57907000000000
H33    H      0.40704000000000     0.31882000000000     0.45741000000000
H33    H      0.59296000000000     0.68118000000000     0.54259000000000
H34    H      0.78045000000000     0.42817000000000     0.30949000000000
H34    H      0.21955000000000     0.57183000000000     0.69051000000000
