data_default
_cell_volume           833.112823
_symmetry_space_group_name_H-M 'P 1'
_symmetry_Int_Tables_number 1
loop_
_symmetry_equiv_pos_site_id
_symmetry_equiv_pos_as_xyz
1 x,y,z
_cell_length_a         7.6280000000
_cell_length_b         8.4550000000
_cell_length_c        14.5210000000
_cell_angle_alpha        90.0000
_cell_angle_beta       117.1800
_cell_angle_gamma        90.0000
_cell_formula_units_Z 1
loop_
_atom_site_label
_atom_site_type_symbol
_atom_site_fract_x
_atom_site_fract_y
_atom_site_fract_z
I1     I      0.92466000000000     0.94735000000000     0.60100000000000
I1     I      0.07534000000000     0.05265000000000     0.39900000000000
I1     I      0.07534000000000     0.44735000000000     0.89900000000000
I1     I      0.92466000000000     0.55265000000000     0.10100000000000
O3     O      0.53822000000000     0.17596000000000     0.00037000000000
O3     O      0.46178000000000     0.82404000000000     0.99963000000000
O3     O      0.46178000000000     0.67596000000000     0.49963000000000
O3     O      0.53822000000000     0.32404000000000     0.50037000000000
C5     C      0.67268000000000     0.12146000000000     0.98428000000000
C5     C      0.32732000000000     0.87854000000000     0.01572000000000
C5     C      0.32732000000000     0.62146000000000     0.51572000000000
C5     C      0.67268000000000     0.37854000000000     0.48428000000000
C7     C      0.60696000000000     0.08371000000000     0.67634000000000
C7     C      0.39304000000000     0.91629000000000     0.32366000000000
C7     C      0.39304000000000     0.58371000000000     0.82366000000000
C7     C      0.60696000000000     0.41629000000000     0.17634000000000
C8     C      0.45766000000000     0.14412000000000     0.69372000000000
C8     C      0.54234000000000     0.85588000000000     0.30628000000000
C8     C      0.54234000000000     0.64412000000000     0.80628000000000
C8     C      0.45766000000000     0.35588000000000     0.19372000000000
C9     C      0.48023000000000     0.15628000000000     0.79554000000000
C9     C      0.51977000000000     0.84372000000000     0.20446000000000
C9     C      0.51977000000000     0.65628000000000     0.70446000000000
C9     C      0.48023000000000     0.34372000000000     0.29554000000000
C10    C      0.65289000000000     0.10747000000000     0.87866000000000
C10    C      0.34711000000000     0.89253000000000     0.12134000000000
C10    C      0.34711000000000     0.60747000000000     0.62134000000000
C10    C      0.65289000000000     0.39253000000000     0.37866000000000
C11    C      0.80987000000000     0.04437000000000     0.86242000000000
C11    C      0.19013000000000     0.95563000000000     0.13758000000000
C11    C      0.19013000000000     0.54437000000000     0.63758000000000
C11    C      0.80987000000000     0.45563000000000     0.36242000000000
C12    C      0.78705000000000     0.03217000000000     0.75997000000000
C12    C      0.21295000000000     0.96783000000000     0.24003000000000
C12    C      0.21295000000000     0.53217000000000     0.74003000000000
C12    C      0.78705000000000     0.46783000000000     0.25997000000000
C13    C      0.98905000000000     0.99351000000000     0.94773000000000
C13    C      0.01095000000000     0.00649000000000     0.05227000000000
C13    C      0.01095000000000     0.49351000000000     0.55227000000000
C13    C      0.98905000000000     0.50649000000000     0.44773000000000
C14    C      0.94433000000000     0.96908000000000     0.74435000000000
C14    C      0.05567000000000     0.03092000000000     0.25565000000000
C14    C      0.05567000000000     0.46908000000000     0.75565000000000
C14    C      0.94433000000000     0.53092000000000     0.24435000000000
C15    C      0.11561000000000     0.92076000000000     0.82734000000000
C15    C      0.88439000000000     0.07924000000000     0.17266000000000
C15    C      0.88439000000000     0.42076000000000     0.67266000000000
C15    C      0.11561000000000     0.57924000000000     0.32734000000000
C16    C      0.13953000000000     0.93254000000000     0.92976000000000
C16    C      0.86047000000000     0.06746000000000     0.07024000000000
C16    C      0.86047000000000     0.43254000000000     0.57024000000000
C16    C      0.13953000000000     0.56746000000000     0.42976000000000
H27    H      0.58873000000000     0.07441000000000     0.59667000000000
H27    H      0.41127000000000     0.92559000000000     0.40333000000000
H27    H      0.41127000000000     0.57441000000000     0.90333000000000
H27    H      0.58873000000000     0.42559000000000     0.09667000000000
H28    H      0.31883000000000     0.18373000000000     0.62865000000000
H28    H      0.68117000000000     0.81627000000000     0.37135000000000
H28    H      0.68117000000000     0.68373000000000     0.87135000000000
H28    H      0.31883000000000     0.31627000000000     0.12865000000000
H29    H      0.35957000000000     0.20497000000000     0.80894000000000
H29    H      0.64043000000000     0.79503000000000     0.19106000000000
H29    H      0.64043000000000     0.70497000000000     0.69106000000000
H29    H      0.35957000000000     0.29503000000000     0.30894000000000
H30    H      0.23993000000000     0.87135000000000     0.81720000000000
H30    H      0.76007000000000     0.12865000000000     0.18280000000000
H30    H      0.76007000000000     0.37135000000000     0.68280000000000
H30    H      0.23993000000000     0.62865000000000     0.31720000000000
