data_default
_cell_volume          1698.869034
_symmetry_space_group_name_H-M 'P 1'
_symmetry_Int_Tables_number 1
loop_
_symmetry_equiv_pos_site_id
_symmetry_equiv_pos_as_xyz
1 x,y,z
_cell_length_a        14.3810000000
_cell_length_b         8.4580000000
_cell_length_c        13.9670000000
_cell_angle_alpha        90.0000
_cell_angle_beta        90.0000
_cell_angle_gamma        90.0000
_cell_formula_units_Z 1
loop_
_atom_site_label
_atom_site_type_symbol
_atom_site_fract_x
_atom_site_fract_y
_atom_site_fract_z
I1     I      0.86554000000000     0.19098000000000     0.21493000000000
I1     I      0.63446000000000     0.80902000000000     0.71493000000000
I1     I      0.36554000000000     0.30902000000000     0.78507000000000
I1     I      0.13446000000000     0.69098000000000     0.28507000000000
I2     I      0.63446000000000     0.30902000000000     0.28506000000000
I2     I      0.86554000000000     0.69098000000000     0.78506000000000
I2     I      0.13446000000000     0.19098000000000     0.71494000000000
I2     I      0.36554000000000     0.80902000000000     0.21494000000000
O3     O      0.36042000000000     0.42748000000000     0.02513000000000
O3     O      0.13958000000000     0.57252000000000     0.52513000000000
O3     O      0.86042000000000     0.07252000000000     0.97487000000000
O3     O      0.63958000000000     0.92748000000000     0.47487000000000
O4     O      0.13958000000000     0.07252000000000     0.47487000000000
O4     O      0.36042000000000     0.92748000000000     0.97487000000000
O4     O      0.63958000000000     0.42748000000000     0.52513000000000
O4     O      0.86042000000000     0.57252000000000     0.02513000000000
C5     C      0.31215000000000     0.37228000000000     0.09067000000000
C5     C      0.18785000000000     0.62772000000000     0.59067000000000
C5     C      0.81215000000000     0.12772000000000     0.90933000000000
C5     C      0.68785000000000     0.87228000000000     0.40933000000000
C6     C      0.18785000000000     0.12772000000000     0.40933000000000
C6     C      0.31215000000000     0.87228000000000     0.90933000000000
C6     C      0.68785000000000     0.37228000000000     0.59067000000000
C6     C      0.81215000000000     0.62772000000000     0.09067000000000
C7     C      0.01724000000000     0.32964000000000     0.05992000000000
C7     C      0.48276000000000     0.67036000000000     0.55992000000000
C7     C      0.51724000000000     0.17036000000000     0.94008000000000
C7     C      0.98276000000000     0.82964000000000     0.44008000000000
C8     C      0.07034000000000     0.39083000000000     0.98714000000000
C8     C      0.42966000000000     0.60917000000000     0.48714000000000
C8     C      0.57034000000000     0.10917000000000     0.01286000000000
C8     C      0.92966000000000     0.89083000000000     0.51286000000000
C9     C      0.16766000000000     0.40460000000000     0.99772000000000
C9     C      0.33234000000000     0.59540000000000     0.49772000000000
C9     C      0.66766000000000     0.09540000000000     0.00228000000000
C9     C      0.83234000000000     0.90460000000000     0.50228000000000
C10    C      0.21034000000000     0.35660000000000     0.08146000000000
C10    C      0.28966000000000     0.64340000000000     0.58146000000000
C10    C      0.71034000000000     0.14340000000000     0.91854000000000
C10    C      0.78966000000000     0.85660000000000     0.41854000000000
C11    C      0.15656000000000     0.29271000000000     0.15797000000000
C11    C      0.34344000000000     0.70729000000000     0.65797000000000
C11    C      0.65656000000000     0.20729000000000     0.84203000000000
C11    C      0.84344000000000     0.79271000000000     0.34203000000000
C12    C      0.05867000000000     0.27889000000000     0.14728000000000
C12    C      0.44133000000000     0.72111000000000     0.64728000000000
C12    C      0.55867000000000     0.22111000000000     0.85272000000000
C12    C      0.94133000000000     0.77889000000000     0.35272000000000
C13    C      0.19989000000000     0.24268000000000     0.24488000000000
C13    C      0.30011000000000     0.75732000000000     0.74488000000000
C13    C      0.69989000000000     0.25732000000000     0.75512000000000
C13    C      0.80011000000000     0.74268000000000     0.25512000000000
C14    C      0.00543000000000     0.21503000000000     0.22393000000000
C14    C      0.49457000000000     0.78497000000000     0.72393000000000
C14    C      0.50543000000000     0.28497000000000     0.77607000000000
C14    C      0.99457000000000     0.71503000000000     0.27607000000000
C15    C      0.04831000000000     0.16752000000000     0.30700000000000
C15    C      0.45169000000000     0.83248000000000     0.80700000000000
C15    C      0.54831000000000     0.33248000000000     0.69300000000000
C15    C      0.95169000000000     0.66752000000000     0.19300000000000
C16    C      0.14591000000000     0.18091000000000     0.31823000000000
C16    C      0.35409000000000     0.81909000000000     0.81823000000000
C16    C      0.64591000000000     0.31909000000000     0.68177000000000
C16    C      0.85409000000000     0.68091000000000     0.18177000000000
C17    C      0.30011000000000     0.25732000000000     0.25512000000000
C17    C      0.19989000000000     0.74268000000000     0.75512000000000
C17    C      0.80011000000000     0.24268000000000     0.74488000000000
C17    C      0.69989000000000     0.75732000000000     0.24488000000000
C18    C      0.35409000000000     0.31909000000000     0.18177000000000
C18    C      0.14591000000000     0.68091000000000     0.68177000000000
C18    C      0.85409000000000     0.18091000000000     0.81823000000000
C18    C      0.64591000000000     0.81909000000000     0.31823000000000
C19    C      0.45169000000000     0.33248000000000     0.19300000000000
C19    C      0.04831000000000     0.66752000000000     0.69300000000000
C19    C      0.95169000000000     0.16752000000000     0.80700000000000
C19    C      0.54831000000000     0.83248000000000     0.30700000000000
C20    C      0.49457000000000     0.28497000000000     0.27607000000000
C20    C      0.00543000000000     0.71503000000000     0.77607000000000
C20    C      0.99457000000000     0.21503000000000     0.72393000000000
C20    C      0.50543000000000     0.78497000000000     0.22393000000000
C21    C      0.44133000000000     0.22111000000000     0.35272000000000
C21    C      0.05867000000000     0.77889000000000     0.85272000000000
C21    C      0.94133000000000     0.27889000000000     0.64728000000000
C21    C      0.55867000000000     0.72111000000000     0.14728000000000
C22    C      0.34344000000000     0.20729000000000     0.34202000000000
C22    C      0.15656000000000     0.79271000000000     0.84202000000000
C22    C      0.84344000000000     0.29271000000000     0.65798000000000
C22    C      0.65656000000000     0.70729000000000     0.15798000000000
C23    C      0.48276000000000     0.17036000000000     0.44008000000000
C23    C      0.01724000000000     0.82964000000000     0.94008000000000
C23    C      0.98276000000000     0.32964000000000     0.55992000000000
C23    C      0.51724000000000     0.67036000000000     0.05992000000000
C24    C      0.28966000000000     0.14340000000000     0.41854000000000
C24    C      0.21034000000000     0.85660000000000     0.91854000000000
C24    C      0.78966000000000     0.35660000000000     0.58146000000000
C24    C      0.71034000000000     0.64340000000000     0.08146000000000
C25    C      0.33234000000000     0.09540000000000     0.50228000000000
C25    C      0.16766000000000     0.90460000000000     0.00228000000000
C25    C      0.83234000000000     0.40460000000000     0.49772000000000
C25    C      0.66766000000000     0.59540000000000     0.99772000000000
C26    C      0.42966000000000     0.10917000000000     0.51286000000000
C26    C      0.07034000000000     0.89083000000000     0.01286000000000
C26    C      0.92966000000000     0.39083000000000     0.48714000000000
C26    C      0.57034000000000     0.60917000000000     0.98714000000000
H27    H      0.94123000000000     0.31908000000000     0.05136000000000
H27    H      0.55877000000000     0.68092000000000     0.55136000000000
H27    H      0.44123000000000     0.18092000000000     0.94864000000000
H27    H      0.05877000000000     0.81908000000000     0.44864000000000
H28    H      0.03780000000000     0.42981000000000     0.91980000000000
H28    H      0.46220000000000     0.57019000000000     0.41980000000000
H28    H      0.53780000000000     0.07019000000000     0.08020000000000
H28    H      0.96220000000000     0.92981000000000     0.58020000000000
H29    H      0.20992000000000     0.45391000000000     0.93891000000000
H29    H      0.29008000000000     0.54609000000000     0.43891000000000
H29    H      0.70992000000000     0.04609000000000     0.06109000000000
H29    H      0.79008000000000     0.95391000000000     0.56109000000000
H30    H      0.00847000000000     0.11753000000000     0.36758000000000
H30    H      0.49153000000000     0.88247000000000     0.86758000000000
H30    H      0.50847000000000     0.38247000000000     0.63242000000000
H30    H      0.99153000000000     0.61753000000000     0.13242000000000
H31    H      0.49153000000000     0.38247000000000     0.13242000000000
H31    H      0.00847000000000     0.61753000000000     0.63242000000000
H31    H      0.99153000000000     0.11753000000000     0.86758000000000
H31    H      0.50847000000000     0.88247000000000     0.36758000000000
H32    H      0.55877000000000     0.18092000000000     0.44864000000000
H32    H      0.94123000000000     0.81908000000000     0.94864000000000
H32    H      0.05877000000000     0.31908000000000     0.55136000000000
H32    H      0.44123000000000     0.68092000000000     0.05136000000000
H33    H      0.29008000000000     0.04609000000000     0.56109000000000
H33    H      0.20992000000000     0.95391000000000     0.06109000000000
H33    H      0.79008000000000     0.45391000000000     0.43891000000000
H33    H      0.70992000000000     0.54609000000000     0.93891000000000
H34    H      0.46219000000000     0.07018000000000     0.58020000000000
H34    H      0.03781000000000     0.92982000000000     0.08020000000000
H34    H      0.96219000000000     0.42982000000000     0.41980000000000
H34    H      0.53781000000000     0.57018000000000     0.91980000000000
