data_default
_cell_volume          1698.869034
_symmetry_space_group_name_H-M 'P 1'
_symmetry_Int_Tables_number 1
loop_
_symmetry_equiv_pos_site_id
_symmetry_equiv_pos_as_xyz
1 x,y,z
_cell_length_a        14.3810000000
_cell_length_b        13.9670000000
_cell_length_c         8.4580000000
_cell_angle_alpha        90.0000
_cell_angle_beta        90.0000
_cell_angle_gamma        90.0000
_cell_formula_units_Z 1
loop_
_atom_site_label
_atom_site_type_symbol
_atom_site_fract_x
_atom_site_fract_y
_atom_site_fract_z
I1     I      0.61555000000000     0.03506000000000     0.94097000000000
I1     I      0.88445000000000     0.53506000000000     0.94097000000000
I1     I      0.61555000000000     0.46494000000000     0.44097000000000
I1     I      0.88445000000000     0.96494000000000     0.44097000000000
I1     I      0.38445000000000     0.96494000000000     0.05903000000000
I1     I      0.11555000000000     0.46494000000000     0.05903000000000
I1     I      0.38445000000000     0.53506000000000     0.55903000000000
I1     I      0.11555000000000     0.03506000000000     0.55903000000000
O3     O      0.11041000000000     0.22488000000000     0.17742000000000
O3     O      0.38959000000000     0.72488000000000     0.17742000000000
O3     O      0.11041000000000     0.27512000000000     0.67742000000000
O3     O      0.38959000000000     0.77512000000000     0.67742000000000
O3     O      0.88959000000000     0.77512000000000     0.82258000000000
O3     O      0.61041000000000     0.27512000000000     0.82258000000000
O3     O      0.88959000000000     0.72488000000000     0.32258000000000
O3     O      0.61041000000000     0.22488000000000     0.32258000000000
C5     C      0.06215000000000     0.15933000000000     0.12224000000000
C5     C      0.43785000000000     0.65933000000000     0.12224000000000
C5     C      0.06215000000000     0.34067000000000     0.62224000000000
C5     C      0.43785000000000     0.84067000000000     0.62224000000000
C5     C      0.93785000000000     0.84067000000000     0.87776000000000
C5     C      0.56215000000000     0.34067000000000     0.87776000000000
C5     C      0.93785000000000     0.65933000000000     0.37776000000000
C5     C      0.56215000000000     0.15933000000000     0.37776000000000
C7     C      0.76724000000000     0.19008000000000     0.07959000000000
C7     C      0.73276000000000     0.69008000000000     0.07959000000000
C7     C      0.76724000000000     0.30992000000000     0.57959000000000
C7     C      0.73276000000000     0.80992000000000     0.57959000000000
C7     C      0.23276000000000     0.80992000000000     0.92041000000000
C7     C      0.26724000000000     0.30992000000000     0.92041000000000
C7     C      0.23276000000000     0.69008000000000     0.42041000000000
C7     C      0.26724000000000     0.19008000000000     0.42041000000000
C8     C      0.82034000000000     0.26286000000000     0.14076000000000
C8     C      0.67966000000000     0.76286000000000     0.14076000000000
C8     C      0.82034000000000     0.23714000000000     0.64076000000000
C8     C      0.67966000000000     0.73714000000000     0.64076000000000
C8     C      0.17966000000000     0.73714000000000     0.85924000000000
C8     C      0.32034000000000     0.23714000000000     0.85924000000000
C8     C      0.17966000000000     0.76286000000000     0.35924000000000
C8     C      0.32034000000000     0.26286000000000     0.35924000000000
C9     C      0.91766000000000     0.25228000000000     0.15454000000000
C9     C      0.58234000000000     0.75228000000000     0.15454000000000
C9     C      0.91766000000000     0.24772000000000     0.65454000000000
C9     C      0.58234000000000     0.74772000000000     0.65454000000000
C9     C      0.08234000000000     0.74772000000000     0.84546000000000
C9     C      0.41766000000000     0.24772000000000     0.84546000000000
C9     C      0.08234000000000     0.75228000000000     0.34546000000000
C9     C      0.41766000000000     0.25228000000000     0.34546000000000
C10    C      0.96034000000000     0.16854000000000     0.10656000000000
C10    C      0.53966000000000     0.66854000000000     0.10656000000000
C10    C      0.96034000000000     0.33146000000000     0.60656000000000
C10    C      0.53966000000000     0.83146000000000     0.60656000000000
C10    C      0.03966000000000     0.83146000000000     0.89344000000000
C10    C      0.46034000000000     0.33146000000000     0.89344000000000
C10    C      0.03966000000000     0.66854000000000     0.39344000000000
C10    C      0.46034000000000     0.16854000000000     0.39344000000000
C11    C      0.90656000000000     0.09202000000000     0.04269000000000
C11    C      0.59344000000000     0.59202000000000     0.04269000000000
C11    C      0.90656000000000     0.40798000000000     0.54269000000000
C11    C      0.59344000000000     0.90798000000000     0.54269000000000
C11    C      0.09344000000000     0.90798000000000     0.95731000000000
C11    C      0.40656000000000     0.40798000000000     0.95731000000000
C11    C      0.09344000000000     0.59202000000000     0.45731000000000
C11    C      0.40656000000000     0.09202000000000     0.45731000000000
C12    C      0.80867000000000     0.10272000000000     0.02886000000000
C12    C      0.69133000000000     0.60272000000000     0.02886000000000
C12    C      0.80867000000000     0.39728000000000     0.52886000000000
C12    C      0.69133000000000     0.89728000000000     0.52886000000000
C12    C      0.19133000000000     0.89728000000000     0.97114000000000
C12    C      0.30867000000000     0.39728000000000     0.97114000000000
C12    C      0.19133000000000     0.60272000000000     0.47114000000000
C12    C      0.30867000000000     0.10272000000000     0.47114000000000
C13    C      0.94989000000000     0.00512000000000     0.99268000000000
C13    C      0.55011000000000     0.50512000000000     0.99268000000000
C13    C      0.94989000000000     0.49488000000000     0.49268000000000
C13    C      0.55011000000000     0.99488000000000     0.49268000000000
C13    C      0.05011000000000     0.99488000000000     0.00732000000000
C13    C      0.44989000000000     0.49488000000000     0.00732000000000
C13    C      0.05011000000000     0.50512000000000     0.50732000000000
C13    C      0.44989000000000     0.00512000000000     0.50732000000000
C14    C      0.75543000000000     0.02607000000000     0.96502000000000
C14    C      0.74457000000000     0.52607000000000     0.96502000000000
C14    C      0.75543000000000     0.47393000000000     0.46502000000000
C14    C      0.74457000000000     0.97393000000000     0.46502000000000
C14    C      0.24457000000000     0.97393000000000     0.03498000000000
C14    C      0.25543000000000     0.47393000000000     0.03498000000000
C14    C      0.24457000000000     0.52607000000000     0.53498000000000
C14    C      0.25543000000000     0.02607000000000     0.53498000000000
C15    C      0.79831000000000     0.94300000000000     0.91754000000000
C15    C      0.70169000000000     0.44300000000000     0.91754000000000
C15    C      0.79831000000000     0.55700000000000     0.41754000000000
C15    C      0.70169000000000     0.05700000000000     0.41754000000000
C15    C      0.20169000000000     0.05700000000000     0.08246000000000
C15    C      0.29831000000000     0.55700000000000     0.08246000000000
C15    C      0.20169000000000     0.44300000000000     0.58246000000000
C15    C      0.29831000000000     0.94300000000000     0.58246000000000
C16    C      0.89591000000000     0.93177000000000     0.93093000000000
C16    C      0.60409000000000     0.43177000000000     0.93093000000000
C16    C      0.89591000000000     0.56823000000000     0.43093000000000
C16    C      0.60409000000000     0.06823000000000     0.43093000000000
C16    C      0.10409000000000     0.06823000000000     0.06907000000000
C16    C      0.39591000000000     0.56823000000000     0.06907000000000
C16    C      0.10409000000000     0.43177000000000     0.56907000000000
C16    C      0.39591000000000     0.93177000000000     0.56907000000000
H27    H      0.69123000000000     0.19863000000000     0.06903000000000
H27    H      0.80877000000000     0.69863000000000     0.06903000000000
H27    H      0.69123000000000     0.30137000000000     0.56903000000000
H27    H      0.80877000000000     0.80137000000000     0.56903000000000
H27    H      0.30877000000000     0.80137000000000     0.93097000000000
H27    H      0.19123000000000     0.30137000000000     0.93097000000000
H27    H      0.30877000000000     0.69863000000000     0.43097000000000
H27    H      0.19123000000000     0.19863000000000     0.43097000000000
H28    H      0.78780000000000     0.33019000000000     0.17973000000000
H28    H      0.71220000000000     0.83019000000000     0.17973000000000
H28    H      0.78780000000000     0.16981000000000     0.67973000000000
H28    H      0.71220000000000     0.66981000000000     0.67973000000000
H28    H      0.21220000000000     0.66981000000000     0.82027000000000
H28    H      0.28780000000000     0.16981000000000     0.82027000000000
H28    H      0.21220000000000     0.83019000000000     0.32027000000000
H28    H      0.28780000000000     0.33019000000000     0.32027000000000
H29    H      0.95992000000000     0.31109000000000     0.20383000000000
H29    H      0.54008000000000     0.81109000000000     0.20383000000000
H29    H      0.95992000000000     0.18891000000000     0.70383000000000
H29    H      0.54008000000000     0.68891000000000     0.70383000000000
H29    H      0.04008000000000     0.68891000000000     0.79617000000000
H29    H      0.45992000000000     0.18891000000000     0.79617000000000
H29    H      0.04008000000000     0.81109000000000     0.29617000000000
H29    H      0.45992000000000     0.31109000000000     0.29617000000000
H30    H      0.75847000000000     0.88242000000000     0.86756000000000
H30    H      0.74153000000000     0.38242000000000     0.86756000000000
H30    H      0.75847000000000     0.61758000000000     0.36756000000000
H30    H      0.74153000000000     0.11758000000000     0.36756000000000
H30    H      0.24153000000000     0.11758000000000     0.13244000000000
H30    H      0.25847000000000     0.61758000000000     0.13244000000000
H30    H      0.24153000000000     0.38242000000000     0.63244000000000
H30    H      0.25847000000000     0.88242000000000     0.63244000000000
