data_default
_cell_volume           403.289177
_symmetry_space_group_name_H-M 'P 1'
_symmetry_Int_Tables_number 1
loop_
_symmetry_equiv_pos_site_id
_symmetry_equiv_pos_as_xyz
1 x,y,z
_cell_length_a         4.2038000000
_cell_length_b         9.3369000000
_cell_length_c        10.8184000000
_cell_angle_alpha        77.0573
_cell_angle_beta        83.9589
_cell_angle_gamma        77.4858
_cell_formula_units_Z 1
loop_
_atom_site_label
_atom_site_type_symbol
_atom_site_fract_x
_atom_site_fract_y
_atom_site_fract_z
C1     C      0.91581000000000     0.74609000000000     0.53517000000000
C1     C      0.08419000000000     0.25391000000000     0.46483000000000
C2     C      0.68864000000000     0.82545000000000     0.61553000000000
C2     C      0.31136000000000     0.17455000000000     0.38447000000000
C3     C      0.48734000000000     0.96732000000000     0.56667000000000
C3     C      0.51266000000000     0.03268000000000     0.43333000000000
C4     C      0.05247000000000     0.18977000000000     0.60212000000000
C4     C      0.94753000000000     0.81023000000000     0.39788000000000
C5     C      0.26626000000000     0.04257000000000     0.64821000000000
C5     C      0.73374000000000     0.95743000000000     0.35179000000000
C6     C      0.66398000000000     0.76039000000000     0.74792000000000
C6     C      0.33602000000000     0.23961000000000     0.25208000000000
C7     C      0.86488000000000     0.61982000000000     0.79494000000000
C7     C      0.13512000000000     0.38018000000000     0.20506000000000
C8     C      0.08418000000000     0.54469000000000     0.71488000000000
C8     C      0.91582000000000     0.45531000000000     0.28512000000000
C9     C      0.10961000000000     0.60805000000000     0.58467000000000
C9     C      0.89039000000000     0.39195000000000     0.41533000000000
C10    C      0.24067000000000     0.97925000000000     0.77853000000000
C10    C      0.75933000000000     0.02075000000000     0.22147000000000
C11    C      0.43393000000000     0.84322000000000     0.82517000000000
C11    C      0.56607000000000     0.15678000000000     0.17483000000000
O12    O      0.85815000000000     0.25461000000000     0.67597000000000
O12    O      0.14185000000000     0.74539000000000     0.32403000000000
I13    I      0.37682000000000     0.75888000000000     0.02045000000000
I13    I      0.62318000000000     0.24112000000000     0.97955000000000
H14    H      0.84477000000000     0.57089000000000     0.89596000000000
H14    H      0.15523000000000     0.42911000000000     0.10404000000000
H15    H      0.23635000000000     0.43668000000000     0.75311000000000
H15    H      0.76365000000000     0.56332000000000     0.24689000000000
H16    H      0.28065000000000     0.55064000000000     0.52022000000000
H16    H      0.71935000000000     0.44936000000000     0.47978000000000
H17    H      0.06666000000000     0.04051000000000     0.83932000000000
H17    H      0.93334000000000     0.95949000000000     0.16068000000000
