data_default
_cell_volume           807.232896
_symmetry_space_group_name_H-M 'P 1'
_symmetry_Int_Tables_number 1
loop_
_symmetry_equiv_pos_site_id
_symmetry_equiv_pos_as_xyz
1 x,y,z
_cell_length_a         4.2235000000
_cell_length_b        20.9248000000
_cell_length_c         9.3065000000
_cell_angle_alpha        90.0000
_cell_angle_beta       101.0460
_cell_angle_gamma        90.0000
_cell_formula_units_Z 1
loop_
_atom_site_label
_atom_site_type_symbol
_atom_site_fract_x
_atom_site_fract_y
_atom_site_fract_z
C1     C      0.93075000000000     0.99364000000000     0.74004000000000
C1     C      0.06925000000000     0.49364000000000     0.75996000000000
C1     C      0.06925000000000     0.00636000000000     0.25996000000000
C1     C      0.93075000000000     0.50636000000000     0.24004000000000
C2     C      0.78038000000000     0.94824000000000     0.63496000000000
C2     C      0.21962000000000     0.44824000000000     0.86504000000000
C2     C      0.21962000000000     0.05176000000000     0.36504000000000
C2     C      0.78038000000000     0.55176000000000     0.13496000000000
C3     C      0.54473000000000     0.96694000000000     0.51043000000000
C3     C      0.45527000000000     0.46694000000000     0.98957000000000
C3     C      0.45527000000000     0.03306000000000     0.48957000000000
C3     C      0.54473000000000     0.53306000000000     0.01043000000000
C4     C      0.15595000000000     0.93814000000000     0.27832000000000
C4     C      0.84405000000000     0.43814000000000     0.22168000000000
C4     C      0.84405000000000     0.06186000000000     0.72168000000000
C4     C      0.15595000000000     0.56186000000000     0.77832000000000
C5     C      0.40125000000000     0.92112000000000     0.40904000000000
C5     C      0.59875000000000     0.42112000000000     0.09096000000000
C5     C      0.59875000000000     0.07888000000000     0.59096000000000
C5     C      0.40125000000000     0.57888000000000     0.90904000000000
C6     C      0.86953000000000     0.88262000000000     0.65591000000000
C6     C      0.13047000000000     0.38262000000000     0.84409000000000
C6     C      0.13047000000000     0.11738000000000     0.34409000000000
C6     C      0.86953000000000     0.61738000000000     0.15591000000000
C7     C      0.10327000000000     0.86480000000000     0.77975000000000
C7     C      0.89673000000000     0.36480000000000     0.72025000000000
C7     C      0.89673000000000     0.13520000000000     0.22025000000000
C7     C      0.10327000000000     0.63520000000000     0.27975000000000
C8     C      0.24631000000000     0.90985000000000     0.88053000000000
C8     C      0.75369000000000     0.40985000000000     0.61947000000000
C8     C      0.75369000000000     0.09015000000000     0.11947000000000
C8     C      0.24631000000000     0.59015000000000     0.38053000000000
C9     C      0.15971000000000     0.97442000000000     0.86057000000000
C9     C      0.84029000000000     0.47442000000000     0.63943000000000
C9     C      0.84029000000000     0.02558000000000     0.13943000000000
C9     C      0.15971000000000     0.52558000000000     0.36057000000000
C10    C      0.48777000000000     0.85649000000000     0.42894000000000
C10    C      0.51223000000000     0.35649000000000     0.07106000000000
C10    C      0.51223000000000     0.14351000000000     0.57106000000000
C10    C      0.48777000000000     0.64351000000000     0.92894000000000
C11    C      0.71373000000000     0.83867000000000     0.54841000000000
C11    C      0.28627000000000     0.33867000000000     0.95159000000000
C11    C      0.28627000000000     0.16133000000000     0.45159000000000
C11    C      0.71373000000000     0.66133000000000     0.04841000000000
O12    O      0.03171000000000     0.89680000000000     0.18978000000000
O12    O      0.96829000000000     0.39680000000000     0.31022000000000
O12    O      0.96829000000000     0.10320000000000     0.81022000000000
O12    O      0.03171000000000     0.60320000000000     0.68978000000000
I13    I      0.82523000000000     0.74132000000000     0.56780000000000
I13    I      0.17477000000000     0.24132000000000     0.93220000000000
I13    I      0.17477000000000     0.25868000000000     0.43220000000000
I13    I      0.82523000000000     0.75868000000000     0.06780000000000
H14    H      0.17007000000000     0.81469000000000     0.79501000000000
H14    H      0.82993000000000     0.31469000000000     0.70499000000000
H14    H      0.82993000000000     0.18531000000000     0.20499000000000
H14    H      0.17007000000000     0.68531000000000     0.29501000000000
H15    H      0.42553000000000     0.89507000000000     0.97500000000000
H15    H      0.57447000000000     0.39507000000000     0.52500000000000
H15    H      0.57447000000000     0.10493000000000     0.02500000000000
H15    H      0.42553000000000     0.60493000000000     0.47500000000000
H16    H      0.26954000000000     0.01054000000000     0.93865000000000
H16    H      0.73046000000000     0.51054000000000     0.56135000000000
H16    H      0.73046000000000     0.98946000000000     0.06135000000000
H16    H      0.26954000000000     0.48946000000000     0.43865000000000
H17    H      0.37191000000000     0.82209000000000     0.34824000000000
H17    H      0.62809000000000     0.32209000000000     0.15176000000000
H17    H      0.62809000000000     0.17791000000000     0.65176000000000
H17    H      0.37191000000000     0.67791000000000     0.84824000000000
