data_default
_cell_volume           807.833105
_symmetry_space_group_name_H-M 'P 1'
_symmetry_Int_Tables_number 1
loop_
_symmetry_equiv_pos_site_id
_symmetry_equiv_pos_as_xyz
1 x,y,z
_cell_length_a         4.0490000000
_cell_length_b        24.4860000000
_cell_length_c         8.2920000000
_cell_angle_alpha        90.0000
_cell_angle_beta       100.6900
_cell_angle_gamma        90.0000
_cell_formula_units_Z 1
loop_
_atom_site_label
_atom_site_type_symbol
_atom_site_fract_x
_atom_site_fract_y
_atom_site_fract_z
C1     C      0.53976000000000     0.42307000000000     0.49901000000000
C1     C      0.46024000000000     0.92307000000000     0.00099000000000
C1     C      0.46024000000000     0.57693000000000     0.50099000000000
C1     C      0.53976000000000     0.07693000000000     0.99901000000000
C2     C      0.51625000000000     0.52312000000000     0.44527000000000
C2     C      0.48375000000000     0.02312000000000     0.05473000000000
C2     C      0.48375000000000     0.47688000000000     0.55473000000000
C2     C      0.51625000000000     0.97688000000000     0.94527000000000
C3     C      0.64038000000000     0.51567000000000     0.30171000000000
C3     C      0.35962000000000     0.01567000000000     0.19829000000000
C3     C      0.35962000000000     0.48433000000000     0.69829000000000
C3     C      0.64038000000000     0.98433000000000     0.80171000000000
C4     C      0.66762000000000     0.41425000000000     0.35209000000000
C4     C      0.33238000000000     0.91425000000000     0.14791000000000
C4     C      0.33238000000000     0.58575000000000     0.64791000000000
C4     C      0.66762000000000     0.08575000000000     0.85209000000000
C5     C      0.48858000000000     0.37762000000000     0.59801000000000
C5     C      0.51142000000000     0.87762000000000     0.90199000000000
C5     C      0.51142000000000     0.62238000000000     0.40199000000000
C5     C      0.48858000000000     0.12238000000000     0.09801000000000
C6     C      0.61829000000000     0.61326000000000     0.24826000000000
C6     C      0.38171000000000     0.11326000000000     0.25174000000000
C6     C      0.38171000000000     0.38674000000000     0.75174000000000
C6     C      0.61829000000000     0.88674000000000     0.74826000000000
C7     C      0.69075000000000     0.56120000000000     0.20363000000000
C7     C      0.30925000000000     0.06120000000000     0.29637000000000
C7     C      0.30925000000000     0.43880000000000     0.79637000000000
C7     C      0.69075000000000     0.93880000000000     0.70363000000000
C8     C      0.72316000000000     0.46073000000000     0.24698000000000
C8     C      0.27684000000000     0.96073000000000     0.25302000000000
C8     C      0.27684000000000     0.53927000000000     0.75302000000000
C8     C      0.72316000000000     0.03927000000000     0.74698000000000
C9     C      0.74100000000000     0.36199000000000     0.30649000000000
C9     C      0.25900000000000     0.86199000000000     0.19351000000000
C9     C      0.25900000000000     0.63801000000000     0.69351000000000
C9     C      0.74100000000000     0.13801000000000     0.80649000000000
C10    C      0.56717000000000     0.32443000000000     0.54689000000000
C10    C      0.43283000000000     0.82443000000000     0.95311000000000
C10    C      0.43283000000000     0.67557000000000     0.45311000000000
C10    C      0.56717000000000     0.17557000000000     0.04689000000000
C11    C      0.69004000000000     0.31685000000000     0.40497000000000
C11    C      0.30996000000000     0.81685000000000     0.09503000000000
C11    C      0.30996000000000     0.68315000000000     0.59503000000000
C11    C      0.69004000000000     0.18315000000000     0.90497000000000
O12    O      0.85490000000000     0.45408000000000     0.12596000000000
O12    O      0.14510000000000     0.95408000000000     0.37404000000000
O12    O      0.14510000000000     0.54592000000000     0.87404000000000
O12    O      0.85490000000000     0.04592000000000     0.62596000000000
I13    I      0.69904000000000     0.67561000000000     0.09975000000000
I13    I      0.30096000000000     0.17561000000000     0.40025000000000
I13    I      0.30096000000000     0.32439000000000     0.90025000000000
I13    I      0.69904000000000     0.82439000000000     0.59975000000000
H14    H      0.79017000000000     0.55308000000000     0.09042000000000
H14    H      0.20983000000000     0.05308000000000     0.40958000000000
H14    H      0.20983000000000     0.44692000000000     0.90958000000000
H14    H      0.79017000000000     0.94692000000000     0.59042000000000
H15    H      0.52776000000000     0.28904000000000     0.62345000000000
H15    H      0.47224000000000     0.78904000000000     0.87655000000000
H15    H      0.47224000000000     0.71096000000000     0.37655000000000
H15    H      0.52776000000000     0.21096000000000     0.12345000000000
H16    H      0.75022000000000     0.27560000000000     0.36626000000000
H16    H      0.24978000000000     0.77560000000000     0.13374000000000
H16    H      0.24978000000000     0.72440000000000     0.63374000000000
H16    H      0.75022000000000     0.22440000000000     0.86626000000000
H17    H      0.83986000000000     0.35559000000000     0.19254000000000
H17    H      0.16014000000000     0.85559000000000     0.30746000000000
H17    H      0.16014000000000     0.64441000000000     0.80746000000000
H17    H      0.83986000000000     0.14441000000000     0.69254000000000
