data_default
_cell_volume           846.945429
_symmetry_space_group_name_H-M 'P 1'
_symmetry_Int_Tables_number 1
loop_
_symmetry_equiv_pos_site_id
_symmetry_equiv_pos_as_xyz
1 x,y,z
_cell_length_a         9.5660000000
_cell_length_b        25.8760000000
_cell_length_c         4.0820000000
_cell_angle_alpha        90.0000
_cell_angle_beta       123.0480
_cell_angle_gamma        90.0000
_cell_formula_units_Z 1
loop_
_atom_site_label
_atom_site_type_symbol
_atom_site_fract_x
_atom_site_fract_y
_atom_site_fract_z
C1     C      0.09052000000000     0.97784000000000     0.21553000000000
C1     C      0.90948000000000     0.47784000000000     0.78447000000000
C2     C      0.01318000000000     0.02563000000000     0.20226000000000
C2     C      0.98682000000000     0.52563000000000     0.79774000000000
C3     C      0.08854000000000     0.07140000000000     0.21645000000000
C3     C      0.91146000000000     0.57140000000000     0.78355000000000
C4     C      0.24599000000000     0.07157000000000     0.24479000000000
C4     C      0.75401000000000     0.57157000000000     0.75521000000000
C5     C      0.32213000000000     0.02405000000000     0.25785000000000
C5     C      0.67787000000000     0.52405000000000     0.74215000000000
C6     C      0.23974000000000     0.97696000000000     0.24238000000000
C6     C      0.76026000000000     0.47696000000000     0.75762000000000
C7     C      0.32372000000000     0.12006000000000     0.25944000000000
C7     C      0.67628000000000     0.62006000000000     0.74056000000000
C8     C      0.24443000000000     0.17005000000000     0.24584000000000
C8     C      0.75557000000000     0.67005000000000     0.75416000000000
C9     C      0.09242000000000     0.17102000000000     0.21850000000000
C9     C      0.90758000000000     0.67102000000000     0.78150000000000
C10    C      0.00818000000000     0.12158000000000     0.20266000000000
C10    C      0.99182000000000     0.62158000000000     0.79734000000000
C11    C      0.01584000000000     0.21868000000000     0.20536000000000
C11    C      0.98416000000000     0.71868000000000     0.79464000000000
C12    C      0.08841000000000     0.26515000000000     0.21905000000000
C12    C      0.91159000000000     0.76515000000000     0.78095000000000
C13    C      0.24602000000000     0.26606000000000     0.24743000000000
C13    C      0.75398000000000     0.76606000000000     0.75257000000000
C14    C      0.32216000000000     0.21853000000000     0.26049000000000
C14    C      0.67784000000000     0.71853000000000     0.73951000000000
C15    C      0.32841000000000     0.31315000000000     0.26290000000000
C15    C      0.67159000000000     0.81315000000000     0.73710000000000
C16    C      0.47763000000000     0.31227000000000     0.28975000000000
C16    C      0.52237000000000     0.81227000000000     0.71025000000000
C17    C      0.55496000000000     0.26448000000000     0.30302000000000
C17    C      0.44504000000000     0.76448000000000     0.69698000000000
C18    C      0.47961000000000     0.21870000000000     0.28884000000000
C18    C      0.52039000000000     0.71870000000000     0.71116000000000
C19    C      0.55997000000000     0.16853000000000     0.30262000000000
C19    C      0.44003000000000     0.66853000000000     0.69738000000000
C20    C      0.47573000000000     0.11909000000000     0.28679000000000
C20    C      0.52427000000000     0.61909000000000     0.71321000000000
C21    C      0.55231000000000     0.07143000000000     0.29992000000000
C21    C      0.44769000000000     0.57143000000000     0.70008000000000
C22    C      0.47974000000000     0.02495000000000     0.28623000000000
C22    C      0.52026000000000     0.52495000000000     0.71377000000000
O23    O      0.69392000000000     0.16795000000000     0.32672000000000
O23    O      0.30608000000000     0.66795000000000     0.67328000000000
O24    O      0.87423000000000     0.12216000000000     0.17856000000000
O24    O      0.12577000000000     0.62216000000000     0.82144000000000
I25    I      0.60749000000000     0.95798000000000     0.30832000000000
I25    I      0.39251000000000     0.45798000000000     0.69168000000000
I26    I      0.96066000000000     0.33212000000000     0.19697000000000
I26    I      0.03934000000000     0.83212000000000     0.80303000000000
H27    H      0.03077000000000     0.94187000000000     0.20429000000000
H27    H      0.96923000000000     0.44187000000000     0.79571000000000
H28    H      0.89563000000000     0.02591000000000     0.18110000000000
H28    H      0.10437000000000     0.52591000000000     0.81890000000000
H29    H      0.29290000000000     0.93981000000000     0.25144000000000
H29    H      0.70710000000000     0.43981000000000     0.74856000000000
H30    H      0.89826000000000     0.21835000000000     0.18419000000000
H30    H      0.10174000000000     0.71835000000000     0.81581000000000
H31    H      0.27525000000000     0.35030000000000     0.25384000000000
H31    H      0.72475000000000     0.85030000000000     0.74616000000000
H32    H      0.53738000000000     0.34824000000000     0.30099000000000
H32    H      0.46262000000000     0.84824000000000     0.69901000000000
H33    H      0.67252000000000     0.26420000000000     0.32418000000000
H33    H      0.32748000000000     0.76420000000000     0.67582000000000
H34    H      0.66988000000000     0.07176000000000     0.32109000000000
H34    H      0.33012000000000     0.57176000000000     0.67891000000000
