data_default
_cell_volume           820.748871
_symmetry_space_group_name_H-M 'P 1'
_symmetry_Int_Tables_number 1
loop_
_symmetry_equiv_pos_site_id
_symmetry_equiv_pos_as_xyz
1 x,y,z
_cell_length_a        12.9410000000
_cell_length_b        17.0530000000
_cell_length_c         3.7800000000
_cell_angle_alpha        90.0000
_cell_angle_beta        79.7040
_cell_angle_gamma        90.0000
_cell_formula_units_Z 1
loop_
_atom_site_label
_atom_site_type_symbol
_atom_site_fract_x
_atom_site_fract_y
_atom_site_fract_z
C1     C      0.75795000000000     0.77975000000000     0.57232000000000
C1     C      0.24205000000000     0.27975000000000     0.42768000000000
C2     C      0.85644000000000     0.74300000000000     0.58225000000000
C2     C      0.14356000000000     0.24300000000000     0.41775000000000
C3     C      0.94807000000000     0.78266000000000     0.46031000000000
C3     C      0.05193000000000     0.28266000000000     0.53969000000000
C4     C      0.94555000000000     0.86156000000000     0.32160000000000
C4     C      0.05445000000000     0.36156000000000     0.67840000000000
C5     C      0.84762000000000     0.89772000000000     0.31241000000000
C5     C      0.15238000000000     0.39772000000000     0.68759000000000
C6     C      0.75345000000000     0.85447000000000     0.44213000000000
C6     C      0.24655000000000     0.35447000000000     0.55787000000000
C7     C      0.04264000000000     0.90253000000000     0.19428000000000
C7     C      0.95736000000000     0.40253000000000     0.80572000000000
C8     C      0.14564000000000     0.86489000000000     0.20326000000000
C8     C      0.85436000000000     0.36489000000000     0.79674000000000
C9     C      0.15037000000000     0.78877000000000     0.33579000000000
C9     C      0.84963000000000     0.28877000000000     0.66421000000000
C10    C      0.05147000000000     0.74450000000000     0.47000000000000
C10    C      0.94853000000000     0.24450000000000     0.53000000000000
C11    C      0.24858000000000     0.75239000000000     0.34522000000000
C11    C      0.75142000000000     0.25239000000000     0.65478000000000
C12    C      0.34168000000000     0.79069000000000     0.22488000000000
C12    C      0.65832000000000     0.29069000000000     0.77512000000000
C13    C      0.34065000000000     0.86969000000000     0.08514000000000
C13    C      0.65935000000000     0.36969000000000     0.91486000000000
C14    C      0.24272000000000     0.90585000000000     0.07594000000000
C14    C      0.75728000000000     0.40585000000000     0.92406000000000
C15    C      0.43483000000000     0.91294000000000     0.95541000000000
C15    C      0.56517000000000     0.41294000000000     0.04459000000000
C16    C      0.43033000000000     0.98766000000000     0.82522000000000
C16    C      0.56967000000000     0.48766000000000     0.17478000000000
C17    C      0.33184000000000     0.02441000000000     0.81529000000000
C17    C      0.66816000000000     0.52441000000000     0.18471000000000
C18    C      0.24021000000000     0.98475000000000     0.93722000000000
C18    C      0.75979000000000     0.48475000000000     0.06278000000000
C19    C      0.13681000000000     0.02291000000000     0.92754000000000
C19    C      0.86319000000000     0.52291000000000     0.07246000000000
C20    C      0.03791000000000     0.97864000000000     0.06175000000000
C20    C      0.96209000000000     0.47864000000000     0.93825000000000
C21    C      0.93970000000000     0.01502000000000     0.05232000000000
C21    C      0.06030000000000     0.51502000000000     0.94768000000000
C22    C      0.84660000000000     0.97672000000000     0.17266000000000
C22    C      0.15340000000000     0.47672000000000     0.82734000000000
O23    O      0.13320000000000     0.09000000000000     0.81041000000000
O23    O      0.86680000000000     0.59000000000000     0.18959000000000
O24    O      0.05507000000000     0.67741000000000     0.58713000000000
O24    O      0.94493000000000     0.17741000000000     0.41287000000000
I25    I      0.70823000000000     0.03793000000000     0.14170000000000
I25    I      0.29177000000000     0.53793000000000     0.85830000000000
I26    I      0.48005000000000     0.72948000000000     0.25584000000000
I26    I      0.51995000000000     0.22948000000000     0.74416000000000
H27    H      0.68597000000000     0.74831000000000     0.66861000000000
H27    H      0.31403000000000     0.24831000000000     0.33139000000000
H28    H      0.85915000000000     0.68411000000000     0.68531000000000
H28    H      0.14085000000000     0.18411000000000     0.31469000000000
H29    H      0.67702000000000     0.87956000000000     0.44052000000000
H29    H      0.32298000000000     0.37956000000000     0.55948000000000
H30    H      0.25005000000000     0.69347000000000     0.44904000000000
H30    H      0.74995000000000     0.19347000000000     0.55096000000000
H31    H      0.51126000000000     0.88785000000000     0.95701000000000
H31    H      0.48874000000000     0.38785000000000     0.04299000000000
H32    H      0.50231000000000     0.01910000000000     0.72894000000000
H32    H      0.49769000000000     0.51910000000000     0.27106000000000
H33    H      0.32912000000000     0.08330000000000     0.71223000000000
H33    H      0.67088000000000     0.58330000000000     0.28777000000000
H34    H      0.93822000000000     0.07394000000000     0.94850000000000
H34    H      0.06178000000000     0.57394000000000     0.05150000000000
