data_default
_cell_volume           793.875971
_symmetry_space_group_name_H-M 'P 1'
_symmetry_Int_Tables_number 1
loop_
_symmetry_equiv_pos_site_id
_symmetry_equiv_pos_as_xyz
1 x,y,z
_cell_length_a         4.0584000000
_cell_length_b        13.0750000000
_cell_length_c        15.1404000000
_cell_angle_alpha        90.0000
_cell_angle_beta        98.8328
_cell_angle_gamma        90.0000
_cell_formula_units_Z 1
loop_
_atom_site_label
_atom_site_type_symbol
_atom_site_fract_x
_atom_site_fract_y
_atom_site_fract_z
H23    H      0.67460000000000     0.35676000000000     0.29949000000000
H23    H      0.32540000000000     0.85676000000000     0.20051000000000
H23    H      0.32540000000000     0.64324000000000     0.70051000000000
H23    H      0.67460000000000     0.14324000000000     0.79949000000000
C1     C      0.48439000000000     0.86645000000000     0.54589000000000
C1     C      0.51561000000000     0.36645000000000     0.95411000000000
C1     C      0.51561000000000     0.13355000000000     0.45411000000000
C1     C      0.48439000000000     0.63355000000000     0.04589000000000
C2     C      0.34414000000000     0.88640000000000     0.62486000000000
C2     C      0.65586000000000     0.38640000000000     0.87514000000000
C2     C      0.65586000000000     0.11360000000000     0.37514000000000
C2     C      0.34414000000000     0.61360000000000     0.12486000000000
C3     C      0.26205000000000     0.98815000000000     0.64596000000000
C3     C      0.73795000000000     0.48815000000000     0.85404000000000
C3     C      0.73795000000000     0.01185000000000     0.35404000000000
C3     C      0.26205000000000     0.51185000000000     0.14596000000000
C4     C      0.32031000000000     0.07028000000000     0.58974000000000
C4     C      0.67969000000000     0.57028000000000     0.91026000000000
C4     C      0.67969000000000     0.92972000000000     0.41026000000000
C4     C      0.32031000000000     0.42972000000000     0.08974000000000
C5     C      0.45924000000000     0.05093000000000     0.51097000000000
C5     C      0.54076000000000     0.55093000000000     0.98903000000000
C5     C      0.54076000000000     0.94907000000000     0.48903000000000
C5     C      0.45924000000000     0.44907000000000     0.01097000000000
C7     C      0.24189000000000     0.17147000000000     0.61078000000000
C7     C      0.75811000000000     0.67147000000000     0.88922000000000
C7     C      0.75811000000000     0.82853000000000     0.38922000000000
C7     C      0.24189000000000     0.32853000000000     0.11078000000000
C8     C      0.30056000000000     0.25365000000000     0.55579000000000
C8     C      0.69944000000000     0.75365000000000     0.94421000000000
C8     C      0.69944000000000     0.74635000000000     0.44421000000000
C8     C      0.30056000000000     0.24635000000000     0.05579000000000
C9     C      0.43382000000000     0.23542000000000     0.47618000000000
C9     C      0.56618000000000     0.73542000000000     0.02382000000000
C9     C      0.56618000000000     0.76458000000000     0.52382000000000
C9     C      0.43382000000000     0.26458000000000     0.97618000000000
C14    C      0.48924000000000     0.31537000000000     0.41762000000000
C14    C      0.51076000000000     0.81537000000000     0.08238000000000
C14    C      0.51076000000000     0.68463000000000     0.58238000000000
C14    C      0.48924000000000     0.18463000000000     0.91762000000000
C15    C      0.63071000000000     0.29719000000000     0.34036000000000
C15    C      0.36929000000000     0.79719000000000     0.15964000000000
C15    C      0.36929000000000     0.70281000000000     0.65964000000000
C15    C      0.63071000000000     0.20281000000000     0.84036000000000
C16    C      0.71254000000000     0.19693000000000     0.31972000000000
C16    C      0.28746000000000     0.69693000000000     0.18028000000000
C16    C      0.28746000000000     0.80307000000000     0.68028000000000
C16    C      0.71254000000000     0.30307000000000     0.81972000000000
H19    H      0.13238000000000     0.00623000000000     0.71458000000000
H19    H      0.86762000000000     0.50623000000000     0.78542000000000
H19    H      0.86762000000000     0.99377000000000     0.28542000000000
H19    H      0.13238000000000     0.49377000000000     0.21458000000000
H20    H      0.13985000000000     0.18616000000000     0.66731000000000
H20    H      0.86015000000000     0.68616000000000     0.83269000000000
H20    H      0.86015000000000     0.81384000000000     0.33269000000000
H20    H      0.13985000000000     0.31384000000000     0.16731000000000
H21    H      0.18159000000000     0.39985000000000     0.60141000000000
H21    H      0.81841000000000     0.89985000000000     0.89859000000000
H21    H      0.81841000000000     0.60015000000000     0.39859000000000
H21    H      0.18159000000000     0.10015000000000     0.10141000000000
H22    H      0.42745000000000     0.38861000000000     0.43040000000000
H22    H      0.57255000000000     0.88861000000000     0.06960000000000
H22    H      0.57255000000000     0.61139000000000     0.56960000000000
H22    H      0.42745000000000     0.11139000000000     0.93040000000000
H24    H      0.81594000000000     0.18494000000000     0.26312000000000
H24    H      0.18406000000000     0.68494000000000     0.23688000000000
H24    H      0.18406000000000     0.81506000000000     0.73688000000000
H24    H      0.81594000000000     0.31506000000000     0.76312000000000
