data_default
_cell_volume           806.772313
_symmetry_space_group_name_H-M 'P 1'
_symmetry_Int_Tables_number 1
loop_
_symmetry_equiv_pos_site_id
_symmetry_equiv_pos_as_xyz
1 x,y,z
_cell_length_a        13.1122000000
_cell_length_b        15.3783000000
_cell_length_c        14.1150000000
_cell_angle_alpha        90.0000
_cell_angle_beta       163.5334
_cell_angle_gamma        90.0000
_cell_formula_units_Z 1
loop_
_atom_site_label
_atom_site_type_symbol
_atom_site_fract_x
_atom_site_fract_y
_atom_site_fract_z
H23    H      0.42407000000000     0.18166000000000     0.28093000000000
H23    H      0.57593000000000     0.68166000000000     0.21907000000000
H23    H      0.57593000000000     0.81834000000000     0.71907000000000
H23    H      0.42407000000000     0.31834000000000     0.78093000000000
C1     C      0.59653000000000     0.96053000000000     0.96219000000000
C1     C      0.40347000000000     0.46053000000000     0.53781000000000
C1     C      0.40347000000000     0.03947000000000     0.03781000000000
C1     C      0.59653000000000     0.53947000000000     0.46219000000000
C2     C      0.39196000000000     0.88220000000000     0.77907000000000
C2     C      0.60804000000000     0.38220000000000     0.72093000000000
C2     C      0.60804000000000     0.11780000000000     0.22093000000000
C2     C      0.39196000000000     0.61780000000000     0.27907000000000
C3     C      0.19400000000000     0.85725000000000     0.68428000000000
C3     C      0.80600000000000     0.35725000000000     0.81572000000000
C3     C      0.80600000000000     0.14275000000000     0.31572000000000
C3     C      0.19400000000000     0.64275000000000     0.18428000000000
C4     C      0.19905000000000     0.90892000000000     0.77149000000000
C4     C      0.80095000000000     0.40892000000000     0.72851000000000
C4     C      0.80095000000000     0.09108000000000     0.22851000000000
C4     C      0.19905000000000     0.59108000000000     0.27149000000000
C5     C      0.40089000000000     0.98712000000000     0.95254000000000
C5     C      0.59911000000000     0.48712000000000     0.54746000000000
C5     C      0.59911000000000     0.01288000000000     0.04746000000000
C5     C      0.40089000000000     0.51288000000000     0.45254000000000
C7     C      0.00421000000000     0.88416000000000     0.67916000000000
C7     C      0.99579000000000     0.38416000000000     0.82084000000000
C7     C      0.99579000000000     0.11584000000000     0.32084000000000
C7     C      0.00421000000000     0.61584000000000     0.17916000000000
C8     C      0.00368000000000     0.93548000000000     0.76082000000000
C8     C      0.99632000000000     0.43548000000000     0.73918000000000
C8     C      0.99632000000000     0.06452000000000     0.23918000000000
C8     C      0.00368000000000     0.56452000000000     0.26082000000000
C9     C      0.20385000000000     0.01374000000000     0.94151000000000
C9     C      0.79615000000000     0.51374000000000     0.55849000000000
C9     C      0.79615000000000     0.98626000000000     0.05849000000000
C9     C      0.20385000000000     0.48626000000000     0.44151000000000
C14    C      0.21306000000000     0.06744000000000     0.03075000000000
C14    C      0.78694000000000     0.56744000000000     0.46925000000000
C14    C      0.78694000000000     0.93256000000000     0.96925000000000
C14    C      0.21306000000000     0.43256000000000     0.53075000000000
C15    C      0.41623000000000     0.14410000000000     0.21393000000000
C15    C      0.58377000000000     0.64410000000000     0.28607000000000
C15    C      0.58377000000000     0.85590000000000     0.78607000000000
C15    C      0.41623000000000     0.35590000000000     0.71393000000000
C16    C      0.61085000000000     0.16880000000000     0.30687000000000
C16    C      0.38915000000000     0.66880000000000     0.19313000000000
C16    C      0.38915000000000     0.83120000000000     0.69313000000000
C16    C      0.61085000000000     0.33120000000000     0.80687000000000
H19    H      0.00686000000000     0.78924000000000     0.51627000000000
H19    H      0.99314000000000     0.28924000000000     0.98373000000000
H19    H      0.99314000000000     0.21076000000000     0.48373000000000
H19    H      0.00686000000000     0.71076000000000     0.01627000000000
H20    H      0.85772000000000     0.82780000000000     0.54836000000000
H20    H      0.14228000000000     0.32780000000000     0.95164000000000
H20    H      0.14228000000000     0.17220000000000     0.45164000000000
H20    H      0.85772000000000     0.67220000000000     0.04836000000000
H21    H      0.68864000000000     0.88774000000000     0.59353000000000
H21    H      0.31136000000000     0.38774000000000     0.90647000000000
H21    H      0.31136000000000     0.11226000000000     0.40647000000000
H21    H      0.68864000000000     0.61226000000000     0.09353000000000
H22    H      0.07318000000000     0.05131000000000     0.96545000000000
H22    H      0.92682000000000     0.55131000000000     0.53455000000000
H22    H      0.92682000000000     0.94869000000000     0.03455000000000
H22    H      0.07318000000000     0.44869000000000     0.46545000000000
H24    H      0.75789000000000     0.22498000000000     0.44082000000000
H24    H      0.24211000000000     0.72498000000000     0.05918000000000
H24    H      0.24211000000000     0.77502000000000     0.55918000000000
H24    H      0.75789000000000     0.27502000000000     0.94082000000000
