data_default
_cell_volume           772.459228
_symmetry_space_group_name_H-M 'P 1'
_symmetry_Int_Tables_number 1
loop_
_symmetry_equiv_pos_site_id
_symmetry_equiv_pos_as_xyz
1 x,y,z
_cell_length_a        11.0053900000
_cell_length_b        18.9655700000
_cell_length_c        12.8473700000
_cell_angle_alpha        27.6780
_cell_angle_beta       138.9180
_cell_angle_gamma       124.5110
_cell_formula_units_Z 1
loop_
_atom_site_label
_atom_site_type_symbol
_atom_site_fract_x
_atom_site_fract_y
_atom_site_fract_z
O1     O      0.56159700000000     0.41299400000000     0.75413300000000
O1     O      0.43840300000000     0.58700600000000     0.24586700000000
C2     C      0.60037000000000     0.53167400000000     0.65508400000000
C2     C      0.39963000000000     0.46832600000000     0.34491600000000
C3     C      0.48311100000000     0.63139900000000     0.52608000000000
C3     C      0.51688900000000     0.36860100000000     0.47392000000000
C4     C      0.32079600000000     0.59824400000000     0.50607500000000
C4     C      0.67920400000000     0.40175600000000     0.49392500000000
H4     H      0.28624600000000     0.50023500000000     0.58580200000000
H4     H      0.71375400000000     0.49976500000000     0.41419800000000
C5     C      0.20437200000000     0.69725400000000     0.37789000000000
C5     C      0.79562800000000     0.30274600000000     0.62211000000000
H5     H      0.08526800000000     0.67188400000000     0.36361200000000
H5     H      0.91473200000000     0.32811600000000     0.63638800000000
C6     C      0.24932900000000     0.83028100000000     0.26942900000000
C6     C      0.75067100000000     0.16971900000000     0.73057100000000
H6     H      0.16086300000000     0.90119200000000     0.17609200000000
H6     H      0.83913700000000     0.09880800000000     0.82390800000000
C7     C      0.41119600000000     0.86635600000000     0.28710400000000
C7     C      0.58880400000000     0.13364400000000     0.71289600000000
C8     C      0.52830900000000     0.76620100000000     0.41568800000000
C8     C      0.47169100000000     0.23379900000000     0.58431200000000
C9     C      0.69151000000000     0.80002000000000     0.43561100000000
C9     C      0.30849000000000     0.19998000000000     0.56438900000000
C10    C      0.80850900000000     0.69999100000000     0.56439300000000
C10    C      0.19149100000000     0.30000900000000     0.43560700000000
C11    C      0.76235400000000     0.56581100000000     0.67371400000000
C11    C      0.23764600000000     0.43418900000000     0.32628600000000
C12    C      0.87927900000000     0.46786800000000     0.79968300000000
C12    C      0.12072100000000     0.53213200000000     0.20031700000000
H12    H      0.84549000000000     0.37020200000000     0.87815900000000
H12    H      0.15451000000000     0.62979800000000     0.12184100000000
C13    C      0.04035500000000     0.50076200000000     0.81896000000000
C13    C      0.95964500000000     0.49923800000000     0.18104000000000
I14    I      0.19933100000000     0.34807300000000     0.00354100000000
I14    I      0.80066900000000     0.65192700000000     0.99645900000000
C15    C      0.08882400000000     0.63365500000000     0.71290200000000
C15    C      0.91117600000000     0.36634500000000     0.28709800000000
C16    C      0.25068500000000     0.66973500000000     0.73056200000000
C16    C      0.74931500000000     0.33026500000000     0.26943800000000
H16    H      0.33915300000000     0.59882200000000     0.82390500000000
H16    H      0.66084700000000     0.40117800000000     0.17609500000000
C17    C      0.29563300000000     0.80277000000000     0.62207800000000
C17    C      0.70436700000000     0.19723000000000     0.37792200000000
H17    H      0.41473200000000     0.82814300000000     0.63634600000000
H17    H      0.58526800000000     0.17185700000000     0.36365400000000
C18    C      0.17920700000000     0.90178100000000     0.49389100000000
C18    C      0.82079300000000     0.09821900000000     0.50610900000000
H18    H      0.21375200000000     0.99979400000000     0.41415200000000
H18    H      0.78624800000000     0.00020600000000     0.58584800000000
C19    C      0.01690000000000     0.86861900000000     0.47390300000000
C19    C      0.98310000000000     0.13138100000000     0.52609700000000
C20    C      0.97170800000000     0.73381200000000     0.58431100000000
C20    C      0.02829200000000     0.26618800000000     0.41568900000000
C21    C      0.89963900000000     0.96834500000000     0.34489800000000
C21    C      0.10036100000000     0.03165500000000     0.65510200000000
O22    O      0.93840800000000     0.08702900000000     0.24584000000000
O22    O      0.06159200000000     0.91297100000000     0.75416000000000
C23    C      0.73766200000000     0.93420200000000     0.32628300000000
C23    C      0.26233800000000     0.06579800000000     0.67371700000000
C24    C      0.62073900000000     0.03214400000000     0.20032000000000
C24    C      0.37926100000000     0.96785600000000     0.79968000000000
H24    H      0.65452000000000     0.12981600000000     0.12182500000000
H24    H      0.34548000000000     0.87018400000000     0.87817500000000
C25    C      0.45968300000000     0.99923500000000     0.18108800000000
C25    C      0.54031700000000     0.00076500000000     0.81891200000000
I26    I      0.30065500000000     0.15196400000000     0.99638800000000
I26    I      0.69934500000000     0.84803600000000     0.00361200000000
