data_default
_cell_volume           792.408639
_symmetry_space_group_name_H-M 'P 1'
_symmetry_Int_Tables_number 1
loop_
_symmetry_equiv_pos_site_id
_symmetry_equiv_pos_as_xyz
1 x,y,z
_cell_length_a         7.5392000000
_cell_length_b        13.3270000000
_cell_length_c         7.9822000000
_cell_angle_alpha        90.0000
_cell_angle_beta        98.8750
_cell_angle_gamma        90.0000
_cell_formula_units_Z 1
loop_
_atom_site_label
_atom_site_type_symbol
_atom_site_fract_x
_atom_site_fract_y
_atom_site_fract_z
I33    I      0.26374000000000     0.39888000000000     0.92932000000000
I33    I      0.73626000000000     0.60112000000000     0.07068000000000
I33    I      0.73626000000000     0.89888000000000     0.57068000000000
I33    I      0.26374000000000     0.10112000000000     0.42932000000000
O31    O      0.44819000000000     0.00186000000000     0.80964000000000
O31    O      0.55181000000000     0.99814000000000     0.19036000000000
O31    O      0.55181000000000     0.50186000000000     0.69036000000000
O31    O      0.44819000000000     0.49814000000000     0.30964000000000
C1     C      0.03247000000000     0.05193000000000     0.99159000000000
C1     C      0.96753000000000     0.94807000000000     0.00841000000000
C1     C      0.96753000000000     0.55193000000000     0.50841000000000
C1     C      0.03247000000000     0.44807000000000     0.49159000000000
C3     C      0.93163000000000     0.13626000000000     0.04322000000000
C3     C      0.06837000000000     0.86374000000000     0.95678000000000
C3     C      0.06837000000000     0.63626000000000     0.45678000000000
C3     C      0.93163000000000     0.36374000000000     0.54322000000000
C5     C      0.19199000000000     0.07061000000000     0.92571000000000
C5     C      0.80801000000000     0.92939000000000     0.07429000000000
C5     C      0.80801000000000     0.57061000000000     0.57429000000000
C5     C      0.19199000000000     0.42939000000000     0.42571000000000
C7     C      0.30446000000000     0.98547000000000     0.86904000000000
C7     C      0.69554000000000     0.01453000000000     0.13096000000000
C7     C      0.69554000000000     0.48547000000000     0.63096000000000
C7     C      0.30446000000000     0.51453000000000     0.36904000000000
C9     C      0.76737000000000     0.12029000000000     0.11140000000000
C9     C      0.23263000000000     0.87971000000000     0.88860000000000
C9     C      0.23263000000000     0.62029000000000     0.38860000000000
C9     C      0.76737000000000     0.37971000000000     0.61140000000000
C11    C      0.99476000000000     0.23800000000000     0.02696000000000
C11    C      0.00524000000000     0.76200000000000     0.97304000000000
C11    C      0.00524000000000     0.73800000000000     0.47304000000000
C11    C      0.99476000000000     0.26200000000000     0.52696000000000
C13    C      0.25436000000000     0.17112000000000     0.90964000000000
C13    C      0.74564000000000     0.82888000000000     0.09036000000000
C13    C      0.74564000000000     0.67112000000000     0.59036000000000
C13    C      0.25436000000000     0.32888000000000     0.40964000000000
C15    C      0.16091000000000     0.25350000000000     0.95793000000000
C15    C      0.83909000000000     0.74650000000000     0.04207000000000
C15    C      0.83909000000000     0.75350000000000     0.54207000000000
C15    C      0.16091000000000     0.24650000000000     0.45793000000000
C17    C      0.67088000000000     0.20190000000000     0.16090000000000
C17    C      0.32912000000000     0.79810000000000     0.83910000000000
C17    C      0.32912000000000     0.70190000000000     0.33910000000000
C17    C      0.67088000000000     0.29810000000000     0.66090000000000
C19    C      0.89063000000000     0.31928000000000     0.07968000000000
C19    C      0.10937000000000     0.68072000000000     0.92032000000000
C19    C      0.10937000000000     0.81928000000000     0.42032000000000
C19    C      0.89063000000000     0.18072000000000     0.57968000000000
C21    C      0.73269000000000     0.30182000000000     0.14501000000000
C21    C      0.26731000000000     0.69818000000000     0.85499000000000
C21    C      0.26731000000000     0.80182000000000     0.35499000000000
C21    C      0.73269000000000     0.19818000000000     0.64501000000000
H23    H      0.38000000000000     0.17995000000000     0.85714000000000
H23    H      0.62000000000000     0.82005000000000     0.14286000000000
H23    H      0.62000000000000     0.67995000000000     0.64286000000000
H23    H      0.38000000000000     0.32005000000000     0.35714000000000
H25    H      0.54625000000000     0.18683000000000     0.21232000000000
H25    H      0.45375000000000     0.81317000000000     0.78768000000000
H25    H      0.45375000000000     0.68683000000000     0.28768000000000
H25    H      0.54625000000000     0.31317000000000     0.71232000000000
H27    H      0.93929000000000     0.39625000000000     0.06699000000000
H27    H      0.06071000000000     0.60375000000000     0.93301000000000
H27    H      0.06071000000000     0.89625000000000     0.43301000000000
H27    H      0.93929000000000     0.10375000000000     0.56699000000000
H29    H      0.65535000000000     0.36508000000000     0.18447000000000
H29    H      0.34465000000000     0.63492000000000     0.81553000000000
H29    H      0.34465000000000     0.86508000000000     0.31553000000000
H29    H      0.65535000000000     0.13492000000000     0.68447000000000
