data_default
_cell_volume           782.061994
_symmetry_space_group_name_H-M 'P 1'
_symmetry_Int_Tables_number 1
loop_
_symmetry_equiv_pos_site_id
_symmetry_equiv_pos_as_xyz
1 x,y,z
_cell_length_a         4.0176000000
_cell_length_b        13.2262000000
_cell_length_c        14.9500000000
_cell_angle_alpha        90.0000
_cell_angle_beta       100.1140
_cell_angle_gamma        90.0000
_cell_formula_units_Z 1
loop_
_atom_site_label
_atom_site_type_symbol
_atom_site_fract_x
_atom_site_fract_y
_atom_site_fract_z
I33    I      0.68444000000000     0.40266000000000     0.60011000000000
I33    I      0.31556000000000     0.59734000000000     0.39989000000000
I33    I      0.31556000000000     0.90266000000000     0.89989000000000
I33    I      0.68444000000000     0.09734000000000     0.10011000000000
O31    O      0.63825000000000     0.00600000000000     0.72648000000000
O31    O      0.36175000000000     0.99400000000000     0.27352000000000
O31    O      0.36175000000000     0.50600000000000     0.77352000000000
O31    O      0.63825000000000     0.49400000000000     0.22648000000000
C1     C      0.96042000000000     0.05240000000000     0.51209000000000
C1     C      0.03958000000000     0.94760000000000     0.48791000000000
C1     C      0.03958000000000     0.55240000000000     0.98791000000000
C1     C      0.96042000000000     0.44760000000000     0.01209000000000
C3     C      0.01994000000000     0.13609000000000     0.45407000000000
C3     C      0.98006000000000     0.86391000000000     0.54593000000000
C3     C      0.98006000000000     0.63609000000000     0.04593000000000
C3     C      0.01994000000000     0.36391000000000     0.95407000000000
C5     C      0.82701000000000     0.07262000000000     0.59120000000000
C5     C      0.17299000000000     0.92738000000000     0.40880000000000
C5     C      0.17299000000000     0.57262000000000     0.90880000000000
C5     C      0.82701000000000     0.42738000000000     0.09120000000000
C7     C      0.75834000000000     0.98823000000000     0.65517000000000
C7     C      0.24166000000000     0.01177000000000     0.34483000000000
C7     C      0.24166000000000     0.48823000000000     0.84483000000000
C7     C      0.75834000000000     0.51177000000000     0.15517000000000
C9     C      0.15646000000000     0.11855000000000     0.37234000000000
C9     C      0.84354000000000     0.88145000000000     0.62766000000000
C9     C      0.84354000000000     0.61855000000000     0.12766000000000
C9     C      0.15646000000000     0.38145000000000     0.87234000000000
C11    C      0.94278000000000     0.23877000000000     0.47751000000000
C11    C      0.05722000000000     0.76123000000000     0.52249000000000
C11    C      0.05722000000000     0.73877000000000     0.02249000000000
C11    C      0.94278000000000     0.26123000000000     0.97751000000000
C13    C      0.75081000000000     0.17405000000000     0.61435000000000
C13    C      0.24919000000000     0.82595000000000     0.38565000000000
C13    C      0.24919000000000     0.67405000000000     0.88565000000000
C13    C      0.75081000000000     0.32595000000000     0.11435000000000
C15    C      0.80486000000000     0.25585000000000     0.56023000000000
C15    C      0.19514000000000     0.74415000000000     0.43977000000000
C15    C      0.19514000000000     0.75585000000000     0.93977000000000
C15    C      0.80486000000000     0.24415000000000     0.06023000000000
C17    C      0.21316000000000     0.19956000000000     0.31674000000000
C17    C      0.78684000000000     0.80044000000000     0.68326000000000
C17    C      0.78684000000000     0.69956000000000     0.18326000000000
C17    C      0.21316000000000     0.30044000000000     0.81674000000000
C19    C      0.00574000000000     0.31936000000000     0.41808000000000
C19    C      0.99426000000000     0.68064000000000     0.58192000000000
C19    C      0.99426000000000     0.81936000000000     0.08192000000000
C19    C      0.00574000000000     0.18064000000000     0.91808000000000
C21    C      0.13755000000000     0.30039000000000     0.33967000000000
C21    C      0.86245000000000     0.69961000000000     0.66033000000000
C21    C      0.86245000000000     0.80039000000000     0.16033000000000
C21    C      0.13755000000000     0.19961000000000     0.83967000000000
H23    H      0.64726000000000     0.18405000000000     0.67715000000000
H23    H      0.35274000000000     0.81595000000000     0.32285000000000
H23    H      0.35274000000000     0.68405000000000     0.82285000000000
H23    H      0.64726000000000     0.31595000000000     0.17715000000000
H25    H      0.31752000000000     0.18328000000000     0.25498000000000
H25    H      0.68248000000000     0.81672000000000     0.74502000000000
H25    H      0.68248000000000     0.68328000000000     0.24502000000000
H25    H      0.31752000000000     0.31672000000000     0.75498000000000
H27    H      0.94665000000000     0.39704000000000     0.43627000000000
H27    H      0.05335000000000     0.60296000000000     0.56373000000000
H27    H      0.05335000000000     0.89704000000000     0.06373000000000
H27    H      0.94665000000000     0.10296000000000     0.93627000000000
H29    H      0.18356000000000     0.36316000000000     0.29529000000000
H29    H      0.81644000000000     0.63684000000000     0.70471000000000
H29    H      0.81644000000000     0.86316000000000     0.20471000000000
H29    H      0.18356000000000     0.13684000000000     0.79529000000000
