data_001xviM2b\PBCA\-\2
_symmetry_cell_setting           orthorhombic
_symmetry_space_group_name_H-M   'P b c a'
_symmetry_Int_Tables_number      61
loop_
_symmetry_equiv_pos_site_id
_symmetry_equiv_pos_as_xyz
1 x,y,z
2 1/2-x,-y,1/2+z
3 -x,1/2+y,1/2-z
4 1/2+x,1/2-y,-z
5 -x,-y,-z
6 1/2+x,y,1/2-z
7 x,1/2-y,1/2+z
8 1/2-x,1/2+y,z
_cell_length_a                   13.5266
_cell_length_b                   12.6850
_cell_length_c                   6.4867
_cell_angle_alpha                90.0000
_cell_angle_beta                 90.0000
_cell_angle_gamma                90.0000
_cell_volume                     1113.02
loop_
_atom_site_label
_atom_site_type_symbol
_atom_site_fract_x
_atom_site_fract_y
_atom_site_fract_z
C1 C 0.51284 0.36225 0.04044
C2 C 0.49524 0.38854 0.25771
C3 C 0.39279 0.41642 0.29355
C4 C 0.32375 0.41704 0.13938
C5 C 0.34709 0.39036 -0.06839
C6 C 0.44161 0.36277 -0.11976
H7 H 0.37315 0.43703 0.45031
H8 H 0.24832 0.43866 0.17650
H9 H 0.29022 0.39188 -0.18544
H10 H 0.46269 0.34192 -0.27551
O11 O 0.56139 0.38628 0.38911
N12 N 0.60673 0.33609 0.00168
N13 N 0.68764 0.31518 -0.01580

#END
