data_Day.XVI.1
# this entry represents Day's submission for compound XVI, choice 1
# Comment: lowest lattice energy structure
# Elatt = -68.85 kJ/mol
# empirically derived model potential, with distributed multipole electrostatics
_symmetry_cell_setting           orthorhombic
_symmetry_space_group_name_H-M   'P b c a'
_symmetry_Int_Tables_number      61
loop_
_symmetry_equiv_pos_site_id
_symmetry_equiv_pos_as_xyz
1 x,y,z
2 1/2-x,-y,1/2+z
3 1/2+x,1/2-y,-z
4 -x,1/2+y,1/2-z
5 -x,-y,-z
6 1/2+x,y,1/2-z
7 1/2-x,1/2+y,z
8 x,1/2-y,1/2+z
_cell_length_a                   11.3604
_cell_length_b                   6.2206
_cell_length_c                   16.7514
_cell_angle_alpha                90
_cell_angle_beta                 90
_cell_angle_gamma                90
_cell_volume                     1183.8
loop_
_atom_site_label
_atom_site_type_symbol
_atom_site_fract_x
_atom_site_fract_y
_atom_site_fract_z
O1 O -0.08581 0.79676 0.48403
N1 N 0.14486 0.71202 0.51491
N2 N 0.16488 0.70701 0.58052
C1 C -0.05 0.7782 0.34397
H1 H -0.14171 0.81189 0.33147
C2 C 0.02962 0.74634 0.28437
H2 H 0.00023 0.75498 0.2228
C3 C 0.15142 0.70154 0.29933
H3 H 0.21118 0.67744 0.24987
C4 C 0.19135 0.68952 0.37578
H4 H 0.28277 0.65599 0.38946
C5 C 0.10969 0.7223 0.43955
C6 C -0.0177 0.76931 0.42801
#END

