data_Crystal_006_006
_symmetry_cell_setting           orthorhombic
_symmetry_space_group_name_H-M   'P b c a'
_symmetry_Int_Tables_number      61
loop_
_symmetry_equiv_pos_site_id
_symmetry_equiv_pos_as_xyz
1 x,y,z
2 1/2-x,-y,1/2+z
3 1/2+x,1/2-y,-z
4 -x,1/2+y,1/2-z
5 -x,-y,-z
6 1/2+x,y,1/2-z
7 1/2-x,1/2+y,z
8 x,1/2-y,1/2+z
_cell_length_a                   16.6029
_cell_length_b                   11.6374
_cell_length_c                   5.93701
_cell_angle_alpha                90.0
_cell_angle_beta                 90.0
_cell_angle_gamma                90.0
_cell_volume                     1147.12
loop_
_atom_site_label
_atom_site_type_symbol
_atom_site_fract_x
_atom_site_fract_y
_atom_site_fract_z
C1 C 0.07637 0.00007 0.25981
C2 C 0.15654 -0.03329 0.26862
C3 C 0.2183 0.04681 0.24638
C4 C 0.19951 0.16227 0.21493
C5 C 0.1195 0.19782 0.20809
C6 C 0.05876 0.11565 0.23048
O1 O 0.02131 -0.076 0.27566
H1 H 0.17038 -0.12321 0.293
H2 H 0.28095 0.01907 0.25271
H3 H 0.24746 0.22505 0.19595
H4 H 0.1048 0.28871 0.18617
N1 N -0.02226 0.14755 0.22517
N2 N -0.0863 0.17177 0.22118

#END

