data_scheraga.XVI.1

# Compound XVI Choice 1
# Comment   lowest lattice energy structure 
# E = -18.2798 kcal/mol

_symmetry_cell_setting               Orthorhombic
_symmetry_space_group_name_Hall      '-P 2ac 2ab'
_symmetry_space_group_name_H-M       'P b c a'
_symmetry_Int_Tables_number                 61
loop_
_symmetry_equiv_pos_site_id         
_symmetry_equiv_pos_as_xyz          
   1 x,y,z                         
   2 1/2-x,-y,1/2+z                
   3 1/2+x,1/2-y,-z                
   4 -x,1/2+y,1/2-z                
   5 -x,-y,-z                      
   6 1/2+x,y,1/2-z                 
   7 1/2-x,1/2+y,z                 
   8 x,1/2-y,1/2+z                 
_cell_length_a                          7.8145(10)
_cell_length_b                            8.282(2)
_cell_length_c                           18.259(2)
_cell_angle_alpha                               90
_cell_angle_beta                                90
_cell_angle_gamma                               90
_cell_volume                             1181.7(3)
loop_
_atom_site_label                    
_atom_site_type_symbol              
_atom_site_fract_x                  
_atom_site_fract_y                  
_atom_site_fract_z                  
O1 O  0.29214 0.97767 0.03185 
N12 N  0.48595 0.72185 -0.00485
N13 N  0.47386 0.67448 -0.06362 
C2 C  0.38859 0.91808 0.07886 
C3 C  0.40760 0.97449 0.15389 
C4 C  0.51679 0.90228 0.20252 
C6 C  0.62050 0.76609 0.18349 
C8 C  0.61273 0.70307 0.11431 
C10 C  0.49908 0.77825 0.06376 
H5 H  0.33036 1.07737 0.16949 
H7 H  0.52544 0.94975 0.25770 
H9 H  0.70488 0.71308 0.22377 
H11 H  0.68887 0.60025 0.09760 


