
#######################################################################
#
#                 Cambridge Crystallographic Data Centre
#                                CCDC 
#
#######################################################################
#
# If this CIF has been generated directly or indirectly from an entry in the 
# Cambridge Structural Database, then it will include bibliographic, chemical, 
# crystal, experimental, refinement or atomic coordinate data resulting from 
# the CCDC's data processing and validation procedures. Files generated from 
# CSD entries are Copyright 2009 Cambridge Crystallographic Data Centre. They 
# may be used in bona fide research applications only, and may not be copied or 
# further disseminated in any form, whether machine-readable or not, except for 
# the purposes of generating routine backup copies on your local computer 
# system.
# 
# Files arising from any other source may also contain material that is the 
# copyright of third parties, including the originator, and you should check 
# with the originator concerning the permitted uses of the information 
# contained in this CIF.
#
# For further information on the CCDC and the free tools enCIFer and Mercury
# for validating and visualising CIF files, please visit www.ccdc.cam.ac.uk
#
#######################################################################

data_p21_1
_symmetry_cell_setting           monoclinic
_symmetry_space_group_name_H-M   'P 21'
_symmetry_Int_Tables_number      4
loop_
_symmetry_equiv_pos_site_id
_symmetry_equiv_pos_as_xyz
1 x,y,z
2 -x,1/2+y,-z
_cell_length_a                  6.2121  
_cell_length_b                  6.6398  
_cell_length_c                  7.6240  
_cell_angle_alpha                90
_cell_angle_beta                58.2020 
_cell_angle_gamma                90
_cell_volume                    267.27  
loop_
_atom_site_label
_atom_site_type_symbol
_atom_site_fract_x
_atom_site_fract_y
_atom_site_fract_z
C1 C     0.3299    0.0801   -0.1823           
C2 C     0.4811   -0.0860   -0.1794           
C3 C     0.1648    0.0164   -0.2607           
C4 C     0.4690   -0.2753   -0.2424           
C5 C     0.1560   -0.1835   -0.3256           
C6 C     0.3062   -0.3268   -0.3163           
O7 O     0.3332    0.2533   -0.1280           
N8 N     0.0222    0.1612   -0.2669           
N9 N    -0.0878    0.2958   -0.2646           
H10 H    0.6051   -0.0498   -0.1241           
H11 H    0.5863   -0.3926   -0.2363           
H12 H    0.3035   -0.4794   -0.3647           
H13 H    0.0309   -0.2175   -0.3804           
#END
