data_643
_database_code_CSD               UNKNWN
_symmetry_cell_setting           monoclinic
_symmetry_space_group_name_H-M   'P 21/c'
_symmetry_Int_Tables_number      14
loop_
_symmetry_equiv_pos_site_id
_symmetry_equiv_pos_as_xyz
1 x,y,z
2 -x,1/2+y,1/2-z
3 -x,-y,-z
4 x,1/2-y,1/2+z
_cell_length_a                   3.7793
_cell_length_b                   17.0406
_cell_length_c                   9.2472
_cell_angle_alpha                90
_cell_angle_beta                 95.7572
_cell_angle_gamma                90
_cell_volume                     592.53
loop_
_atom_site_label
_atom_site_type_symbol
_atom_site_fract_x
_atom_site_fract_y
_atom_site_fract_z
C1 C 0.609338 0.672305 0.387957
C2 C 0.379044 0.691661 0.253288
C3 C 0.243192 0.635843 0.147102
C4 C 0.328742 0.558844 0.169352
C5 C 0.550252 0.536183 0.297282
C6 C 0.682731 0.588701 0.400072
N1 N 0.303914 0.76717 0.236883
N2 N 0.261171 0.832637 0.236497
O1 O 0.720682 0.722288 0.47668
H1 H 0.0753239 0.655599 0.0511928
H2 H 0.229375 0.514637 0.0903373
H3 H 0.615179 0.474055 0.312695
H4 H 0.851109 0.570093 0.496764

