data_XVI_1
_symmetry_cell_setting           monoclinic
_symmetry_space_group_name_H-M   'P 21/n'
_symmetry_Int_Tables_number      14
loop_
_symmetry_equiv_pos_site_id
_symmetry_equiv_pos_as_xyz
1 x,y,z
2 1/2-x,1/2+y,1/2-z
3 -x,-y,-z
4 1/2+x,1/2-y,1/2+z
_cell_length_a                   3.651
_cell_length_b                   17.464
_cell_length_c                   9.318
_cell_angle_alpha                90
_cell_angle_beta                 94.752
_cell_angle_gamma                90
_cell_volume                     592.083
loop_
_atom_site_label
_atom_site_type_symbol
_atom_site_fract_x
_atom_site_fract_y
_atom_site_fract_z
C1 C 0.3579 0.315 0.3433
C2 C 0.3799 0.3043 0.1893
C3 C 0.3292 0.3781 0.1089
C4 C 0.2675 0.4496 0.1758
C5 C 0.2522 0.4526 0.3221
C6 C 0.2983 0.3846 0.4045
O3 O 0.4329 0.243 0.129
N1 N 0.3462 0.372 -0.0323
N2 N 0.3703 0.3543 -0.1488
H2 H 0.2055 0.5066 0.3756
H3 H 0.285 0.3884 0.5209
H1A H 0.3924 0.2638 0.408
H4A H 0.2338 0.5002 0.1094
#END

