data_scheraga.XVI.2

# Compound XVI Choice 2
# Comment   lowest lattice energy structure
# E = -18.259475  kcal/mol

_symmetry_cell_setting                 Monoclinic
_symmetry_space_group_name_Hall      '-P 2ybc'
_symmetry_space_group_name_H-M       'P 21/c'
_symmetry_Int_Tables_number                 14

loop_
_symmetry_equiv_pos_site_id         
_symmetry_equiv_pos_as_xyz          
   1 x,y,z                         
   2 -x,1/2+y,1/2-z                
   3 -x,-y,-z                      
   4 x,1/2-y,1/2+z                 
_cell_length_a                            9.215(2)
_cell_length_b                            7.734(2)
_cell_length_c                          8.4822(10)
_cell_angle_alpha                               90
_cell_angle_beta                           99.0800
_cell_angle_gamma                               90
_cell_volume                              596.9(2)
loop_
_atom_site_label                    
_atom_site_type_symbol              
_atom_site_fract_x                  
_atom_site_fract_y                  
_atom_site_fract_z                  
O1 O  0.05658 0.71225 0.01919 
N12 N  -0.02630 0.52889 0.25925 
N13 N  -0.14841 0.53219 0.27140 
C2 C  0.15139 0.62969 0.10964 
C3 C  0.30718 0.62219 0.09830 
C4 C  0.40497 0.52813 0.20272 
C6 C  0.36189 0.43008 0.33085 
C8 C  0.21795 0.42802 0.35261 
C10 C  0.11629 0.52594 0.24393 
H5 H  0.34222 0.69540 0.00227 
H7 H  0.51971 0.52752 0.18824 
H9 H  0.44309 0.35775 0.41035 
H11 H  0.18061 0.35568 0.44788 


