data_scheraga.XVI.3

# Compound XVI Choice 3
# Comment   lowest lattice energy structure
# E = -18.12825  kcal/mol


_symmetry_cell_setting               Orthorhombic
_symmetry_space_group_name_Hall      '-P 2c 2b'
_symmetry_space_group_name_H-M       'P b c m'
_symmetry_Int_Tables_number                 57
loop_
_symmetry_equiv_pos_site_id         
_symmetry_equiv_pos_as_xyz          
   1 x,y,z                         
   2 -x,-y,1/2+z                   
   3 x,1/2-y,-z                    
   4 -x,1/2+y,1/2-z                
   5 -x,-y,-z                      
   6 x,y,1/2-z                     
   7 -x,1/2+y,z                    
   8 x,1/2-y,1/2+z                 
_cell_length_a                          8.3531(10)
_cell_length_b                           11.757(2)
_cell_length_c                            6.099(2)
_cell_angle_alpha                               90
_cell_angle_beta                                90
_cell_angle_gamma                               90
_cell_volume                              599.0(2)
loop_
_atom_site_label                    
_atom_site_type_symbol              
_atom_site_fract_x                  
_atom_site_fract_y                  
_atom_site_fract_z                  
O1 O  0.47747 -0.08308 0.24998 
N12 N  0.54031 0.14123 0.24998 
N13 N  0.67231 0.16794 0.24998 
C2 C  0.36346 -0.01497 0.24997 
C3 C  0.19460 -0.04536 0.24998 
C4 C  0.07572 0.03478 0.24997 
C6 C  0.10799 0.15438 0.24996 
C8 C  0.26272 0.19249 0.24996 
C10 C  0.38632 0.10904 0.24998 
H5 H  0.16741 -0.13537 0.25001 
H7 H  -0.04794 0.00695 0.24999 
H9 H  0.01012 0.21453 0.24995 
H11 H  0.29252 0.28211 0.24994 

