
#######################################################################
#
#                 Cambridge Crystallographic Data Centre
#                                CCDC 
#
#######################################################################
#
# If this CIF has been generated directly or indirectly from an entry in the 
# Cambridge Structural Database, then it will include bibliographic, chemical, 
# crystal, experimental, refinement or atomic coordinate data resulting from 
# the CCDC's data processing and validation procedures. Files generated from 
# CSD entries are Copyright 2009 Cambridge Crystallographic Data Centre. They 
# may be used in bona fide research applications only, and may not be copied or 
# further disseminated in any form, whether machine-readable or not, except for 
# the purposes of generating routine backup copies on your local computer 
# system.
# 
# Files arising from any other source may also contain material that is the 
# copyright of third parties, including the originator, and you should check 
# with the originator concerning the permitted uses of the information 
# contained in this CIF.
#
# For further information on the CCDC and the free tools enCIFer and Mercury
# for validating and visualising CIF files, please visit www.ccdc.cam.ac.uk
#
#######################################################################

data_p_21c_9
_symmetry_cell_setting           monoclinic
_symmetry_space_group_name_H-M   'P 21/c'
_symmetry_Int_Tables_number      14
loop_
_symmetry_equiv_pos_site_id
_symmetry_equiv_pos_as_xyz
1 x,y,z
2 -x,1/2+y,1/2-z
3 -x,-y,-z
4 x,1/2-y,1/2+z
_cell_length_a                  6.3935  
_cell_length_b                  6.7635  
_cell_length_c                  13.6224 
_cell_angle_alpha                90
_cell_angle_beta                64.9845 
_cell_angle_gamma                90
_cell_volume                    533.81  
loop_
_atom_site_label
_atom_site_type_symbol
_atom_site_fract_x
_atom_site_fract_y
_atom_site_fract_z
C1 C     0.1490   -0.0785   -0.1532            
C2 C     0.2969    0.0852   -0.1531            
C3 C    -0.0946   -0.0141   -0.1211            
C4 C     0.2170    0.2731   -0.1267            
C5 C    -0.1740    0.1848   -0.0938            
C6 C    -0.0199    0.3254   -0.0967            
O7 O     0.2114   -0.2505   -0.1762            
N8 N    -0.2382   -0.1566   -0.1195            
N9 N    -0.3416   -0.2895   -0.1214            
H10 H    0.4758    0.0482   -0.1755            
H11 H    0.3356    0.3888   -0.1283            
H12 H   -0.0750    0.4772   -0.0768            
H13 H   -0.3538    0.2191   -0.0714            
#END   