data_dwmh_16_3
# dwmhofmann
_symmetry_cell_setting        triclinic
_symmetry_space_group_name_H-M  'P -1'
_symmetry_Int_Tables_number  2
loop_
_symmetry-equiv_pos_site_id
_symmetry_equiv_pos_as_xyz
1 x,y,z
2 -x,-y,-z
_cell_length_a      3.536
_cell_length_b      6.262
_cell_length_c      16.192
_cell_angle_alpha   70.585
_cell_angle_beta    113.71
_cell_angle_gamma   78.103
_cell_volume        284.62085
loop_
_atom_site_label
_atom_site_type_symbol
_atom_site_fract_x
_atom_site_fract_y
_atom_site_fract_z
C1 C  -0.90070 0.30600 -0.85590
C2 C  -0.87080 0.11760 -0.88820
C3 C  -0.59270 -0.11770 -0.81870
C4 C  -0.33420 -0.17370 -0.71440
C5 C  -0.35210 0.00900 -0.67800
C6 C  -0.65990 0.25700 -0.75800
N7 N  -0.05590 -0.40370 -0.64350
N8 N  0.18340 -0.58890 -0.57940
O9 O  -0.12280 -0.04630 -0.58690
H10 H  -1.12670 0.49360 -0.91330
H11 H  -1.07170 0.16680 -0.96790
H12 H  -0.56050 -0.26450 -0.83980
H13 H  -0.68510 0.40000 -0.73460 

