
#######################################################################
#
#                 Cambridge Crystallographic Data Centre
#                                CCDC 
#
#######################################################################
#
# If this CIF has been generated directly or indirectly from an entry in the 
# Cambridge Structural Database, then it will include bibliographic, chemical, 
# crystal, experimental, refinement or atomic coordinate data resulting from 
# the CCDC's data processing and validation procedures. Files generated from 
# CSD entries are Copyright 2009 Cambridge Crystallographic Data Centre. They 
# may be used in bona fide research applications only, and may not be copied or 
# further disseminated in any form, whether machine-readable or not, except for 
# the purposes of generating routine backup copies on your local computer 
# system.
# 
# Files arising from any other source may also contain material that is the 
# copyright of third parties, including the originator, and you should check 
# with the originator concerning the permitted uses of the information 
# contained in this CIF.
#
# For further information on the CCDC and the free tools enCIFer and Mercury
# for validating and visualising CIF files, please visit www.ccdc.cam.ac.uk
#
#######################################################################

data_p21_12
_symmetry_cell_setting           monoclinic
_symmetry_space_group_name_H-M   'P 21'
_symmetry_Int_Tables_number      4
loop_
_symmetry_equiv_pos_site_id
_symmetry_equiv_pos_as_xyz
1 x,y,z
2 -x,1/2+y,-z
_cell_length_a                  5.8090  
_cell_length_b                  6.7530  
_cell_length_c                  6.7901  
_cell_angle_alpha                90
_cell_angle_beta                87.4130 
_cell_angle_gamma                90
_cell_volume                    266.09  
loop_
_atom_site_label
_atom_site_type_symbol
_atom_site_fract_x
_atom_site_fract_y
_atom_site_fract_z
C1 C    0.3593   -0.0632   -0.0086          
C2 C    0.5173   -0.0878   -0.1796          
C3 C    0.1371    0.0303   -0.0618          
C4 C    0.4638   -0.0308   -0.3642          
C5 C    0.0854    0.0887   -0.2574          
C6 C    0.2470    0.0585   -0.4057          
O7 O    0.3981   -0.1113    0.1608          
N8 N   -0.0142    0.0566    0.0874          
N9 N   -0.1270    0.0707    0.2253          
H10 H   0.6814   -0.1549   -0.1507          
H11 H   0.5884   -0.0532   -0.4852          
H12 H   0.2123    0.1014   -0.5549          
H13 H  -0.0800    0.1553   -0.2834          
#END
