data_Day.XVI.3
# this entry represents Day's submission for compound XVI, choice 3
# Comment: 3rd lowest lattice energy structure
# Elatt = -68.36 kJ/mol
# empirically derived model potential, with distributed multipole electrostatics
_symmetry_cell_setting           monoclinic
_symmetry_space_group_name_H-M   'P 21/c'
_symmetry_Int_Tables_number      14
loop_
_symmetry_equiv_pos_site_id
_symmetry_equiv_pos_as_xyz
1 x,y,z
2 -x,1/2+y,1/2-z
3 -x,-y,-z
4 x,1/2-y,1/2+z
_cell_length_a                   7.8311
_cell_length_b                   7.7732
_cell_length_c                   11.8789
_cell_angle_alpha                90
_cell_angle_beta                 54.2155
_cell_angle_gamma                90
_cell_volume                     586.595
loop_
_atom_site_label
_atom_site_type_symbol
_atom_site_fract_x
_atom_site_fract_y
_atom_site_fract_z
C1 C 0.289912 0.303836 0.489766
C2 C 0.414601 0.411445 0.380556
C3 C 0.362672 0.464859 0.288363
C4 C 0.182521 0.407677 0.308608
C5 C 0.0488143 0.294596 0.422444
C6 C 0.0933906 0.234213 0.521775
O1 O -0.0246949 0.136872 0.618806
N1 N -0.128304 0.235776 0.445915
N2 N -0.281052 0.1784 0.475414
H1 H 0.33157 0.264732 0.558306
H2 H 0.55938 0.459055 0.361861
H3 H 0.46723 0.550701 0.202955
H4 H 0.138181 0.445356 0.241101
#END
