data_1_mpk-dmacrys_UK_mcm_DD_346
_symmetry_cell_setting           monoclinic
_symmetry_space_group_name_H-M   'C 2/c'
_symmetry_Int_Tables_number      15
loop_
_symmetry_equiv_pos_site_id
_symmetry_equiv_pos_as_xyz
1 x,y,z
2 -x,y,1/2-z
3 1/2+x,1/2+y,z
4 1/2-x,1/2+y,1/2-z
5 -x,-y,-z
6 x,-y,1/2+z
7 1/2-x,1/2-y,-z
8 1/2+x,1/2-y,1/2+z
_cell_length_a                   16.9171(1)
_cell_length_b                   9.8125(1)
_cell_length_c                   7.1998(1)
_cell_angle_alpha                90
_cell_angle_beta                 85.2048(1)
_cell_angle_gamma                90
_cell_volume                     1190.98
loop_
_atom_site_label
_atom_site_type_symbol
_atom_site_fract_x
_atom_site_fract_y
_atom_site_fract_z
C1 C 0.0711441 0.325664 0.903212
C2 C 0.0433968 0.209057 1.00878
C3 C 0.0880665 0.0938244 1.02178
C4 C 0.166913 0.0810493 0.929623
C5 C 0.144815 0.323963 0.810922
C6 C 0.192129 0.204055 0.8234
H1 H 0.0335412 0.414605 0.89714
H2 H -0.0153233 0.212367 1.08116
H3 H 0.066342 0.00624198 1.10215
H4 H 0.168415 0.409656 0.72926
O1 O 0.21041 -0.021982 0.936791
N1 N 0.264241 0.198602 0.735428
N2 N 0.326002 0.185949 0.664857

#END
