data_1_CB_97
_symmetry_cell_setting           orthorhombic
_symmetry_space_group_name_H-M   'P b c a'
_symmetry_Int_Tables_number      61
loop_
_symmetry_equiv_pos_site_id
_symmetry_equiv_pos_as_xyz
1 x,y,z
2 1/2+x,1/2-y,-z
3 -x,1/2+y,1/2-z
4 1/2-x,-y,1/2+z
5 -x,-y,-z
6 1/2-x,1/2+y,z
7 x,1/2-y,1/2+z
8 1/2+x,y,1/2-z
_cell_length_a                   17.6504(1)
_cell_length_b                   7.8617(1)
_cell_length_c                   8.4922(1)
_cell_angle_alpha                90
_cell_angle_beta                 90
_cell_angle_gamma                90
_cell_volume                     1178.4
loop_
_atom_site_label
_atom_site_type_symbol
_atom_site_fract_x
_atom_site_fract_y
_atom_site_fract_z
C1 C 0.810384 0.866501 0.216428
C2 C 0.794094 0.969276 0.0815361
C3 C 0.84553 1.08034 0.0188401
C4 C 0.920457 1.10239 0.0842298
C5 C 0.879533 0.877776 0.286998
C6 C 0.933841 0.993467 0.222546
H1 H 0.767756 0.780366 0.261762
H2 H 0.738811 0.958496 0.0271128
H3 H 0.832469 1.15743 -0.0832994
H4 H 0.894511 0.802681 0.389278
O1 O 0.969788 1.20217 0.031613
N1 N 1.00184 1.00792 0.288056
N2 N 1.06075 1.02762 0.336831

#END

