data_dwmh_16_2
# dwmhofmann
_symmetry_cell_setting        triclinic
_symmetry_space_group_name_H-M  'P -1'
_symmetry_Int_Tables_number  2
loop_
_symmetry-equiv_pos_site_id
_symmetry_equiv_pos_as_xyz
1 x,y,z
2 -x,-y,-z
_cell_length_a      3.536
_cell_length_b      8.075
_cell_length_c      13.909
_cell_angle_alpha   99.513
_cell_angle_beta    71.786
_cell_angle_gamma   130.477
_cell_volume        286.5703
loop_
_atom_site_label
_atom_site_type_symbol
_atom_site_fract_x
_atom_site_fract_y
_atom_site_fract_z
C1 C  -0.02280 -0.54820 -0.35620
C2 C  -0.29940 -0.76890 -0.38820
C3 C  -0.66400 -0.93600 -0.31850
C4 C  -0.76600 -0.88890 -0.21430
C5 C  -0.49860 -0.66980 -0.17830
C6 C  -0.11310 -0.50040 -0.25840
N7 N  -1.12290 -1.04930 -0.14320
N8 N  -1.41150 -1.17160 -0.07910
O9 O  -0.59720 -0.63500 -0.08720
H10 H  0.26840 -0.41690 -0.41380
H11 H  -0.21190 -0.79850 -0.46780
H12 H  -0.88040 -1.10420 -0.33940
H13 H  0.09710 -0.33390 -0.23530
