data_dwmh_16_1
# dwmhofmann
_symmetry_cell_setting        orthorhombic
_symmetry_space_group_name_H-M  'P 21 21 21'
_symmetry_Int_Tables_number  19
loop_
_symmetry-equiv_pos_site_id
_symmetry_equiv_pos_as_xyz
1 x,y,z
2 1/2-x,-y,1/2+z
3 -x,1/2+y,1/2-z
4 1/2+x,1/2-y,-z
_cell_length_a      9.228
_cell_length_b      3.536
_cell_length_c      17.087
_cell_angle_alpha   90.0
_cell_angle_beta    90.0
_cell_angle_gamma   90.0
_cell_volume        557.55237
loop_
_atom_site_label
_atom_site_type_symbol
_atom_site_fract_x
_atom_site_fract_y
_atom_site_fract_z
C1 C  -0.60050 -0.50080 -0.36020
C2 C  -0.68550 -0.50240 -0.28940
C3 C  -0.83130 -0.50240 -0.29420
C4 C  -0.89750 -0.50100 -0.36980
C5 C  -0.81690 -0.49930 -0.44280
C6 C  -0.66090 -0.49940 -0.43200
N7 N  -1.04100 -0.50100 -0.37710
N8 N  -1.15910 -0.50090 -0.38870
O9 O  -0.87800 -0.49810 -0.50740
H10 H  -0.48360 -0.50080 -0.35480
H11 H  -0.63160 -0.50350 -0.23310
H12 H  -0.89900 -0.50360 -0.24250
H13 H  -0.59590 -0.49820 -0.48480
