data_Day.XVI.2
# this entry represents Day's submission for compound XVI, choice 2
# Comment: 2nd lowest lattice energy structure
# Elatt = -68.42 kJ/mol
# empirically derived model potential, with distributed multipole electrostatics
_symmetry_cell_setting           monoclinic
_symmetry_space_group_name_H-M   'P c'
_symmetry_Int_Tables_number      7
loop_
_symmetry_equiv_pos_site_id
_symmetry_equiv_pos_as_xyz
1 x,y,z
2 x,-y,1/2+z
_cell_length_a                   3.8514
_cell_length_b                   8.327
_cell_length_c                   9.2429
_cell_angle_alpha                90
_cell_angle_beta                 97.3842
_cell_angle_gamma                90
_cell_volume                     293.967
loop_
_atom_site_label
_atom_site_type_symbol
_atom_site_fract_x
_atom_site_fract_y
_atom_site_fract_z
C1 C 0.760991 0.821745 0.887818
C2 C 0.866604 0.93022 0.99471
C3 C 1.08092 0.887063 1.12751
C4 C 1.18612 0.732205 1.15036
C5 C 1.07893 0.615807 1.04
C6 C 0.856963 0.6527 0.899895
O1 O 0.768759 0.550033 0.806926
N1 N 1.17561 0.463557 1.05766
N2 N 1.24196 0.332145 1.06122
H1 H 0.599047 0.856473 0.788131
H2 H 0.786513 1.05467 0.979472
H3 H 1.15796 0.977838 1.20919
H4 H 1.3481 0.69517 1.24928
#END

