data_default
_cell_volume           256.926903
_symmetry_space_group_name_H-M 'P 1'
_symmetry_Int_Tables_number 1
loop_
_symmetry_equiv_pos_site_id
_symmetry_equiv_pos_as_xyz
1 x,y,z
_cell_length_a         5.6500000000
_cell_length_b         3.7406000000
_cell_length_c        12.5830000000
_cell_angle_alpha        96.9060
_cell_angle_beta        76.7689
_cell_angle_gamma        92.8671
_cell_formula_units_Z 1
loop_
_atom_site_label
_atom_site_type_symbol
_atom_site_fract_x
_atom_site_fract_y
_atom_site_fract_z
S      S      0.90200000000000     0.07678000000000     0.74149000000000
S      S      0.09800000000000     0.92322000000000     0.25851000000000
C      C      0.18070000000000     0.23022000000000     0.66695000000000
C      C      0.81930000000000     0.76978000000000     0.33305000000000
C      C      0.33911000000000     0.33403000000000     0.73420000000000
C      C      0.66089000000000     0.66597000000000     0.26580000000000
C      C      0.23524000000000     0.28964000000000     0.84627000000000
C      C      0.76476000000000     0.71036000000000     0.15373000000000
C      C      0.00076000000000     0.15357000000000     0.86262000000000
C      C      0.99924000000000     0.84643000000000     0.13738000000000
O      O      0.34905000000000     0.36972000000000     0.93100000000000
O      O      0.65095000000000     0.63028000000000     0.06900000000000
C      C      0.22476000000000     0.23879000000000     0.55193000000000
C      C      0.77524000000000     0.76121000000000     0.44807000000000
N      N      0.26091000000000     0.24576000000000     0.45726000000000
N      N      0.73909000000000     0.75424000000000     0.54274000000000
H      H      0.52191000000000     0.43743000000000     0.70386000000000
H      H      0.47809000000000     0.56257000000000     0.29614000000000
H      H      0.88341000000000     0.09591000000000     0.93966000000000
H      H      0.11659000000000     0.90409000000000     0.06034000000000
H      H      0.51196000000000     0.46179000000000     0.90304000000000
H      H      0.48804000000000     0.53821000000000     0.09696000000000
