data_default
_cell_volume           511.502839
_symmetry_space_group_name_H-M 'P 1'
_symmetry_Int_Tables_number 1
loop_
_symmetry_equiv_pos_site_id
_symmetry_equiv_pos_as_xyz
1 x,y,z
_cell_length_a         3.8351000000
_cell_length_b        11.5184000000
_cell_length_c        12.0822000000
_cell_angle_alpha        90.0000
_cell_angle_beta        73.4095
_cell_angle_gamma        90.0000
_cell_formula_units_Z 1
loop_
_atom_site_label
_atom_site_type_symbol
_atom_site_fract_x
_atom_site_fract_y
_atom_site_fract_z
S      S      0.09317000000000     0.28926000000000     0.80272000000000
S      S      0.90683000000000     0.71074000000000     0.19728000000000
S      S      0.90683000000000     0.78926000000000     0.69728000000000
S      S      0.09317000000000     0.21074000000000     0.30272000000000
C      C      0.93907000000000     0.17310000000000     0.89698000000000
C      C      0.06093000000000     0.82690000000000     0.10302000000000
C      C      0.06093000000000     0.67310000000000     0.60302000000000
C      C      0.93907000000000     0.32690000000000     0.39698000000000
C      C      0.97331000000000     0.19613000000000     0.00537000000000
C      C      0.02669000000000     0.80387000000000     0.99463000000000
C      C      0.02669000000000     0.69613000000000     0.49463000000000
C      C      0.97331000000000     0.30387000000000     0.50537000000000
C      C      0.12445000000000     0.30788000000000     0.01239000000000
C      C      0.87555000000000     0.69212000000000     0.98761000000000
C      C      0.87555000000000     0.80788000000000     0.48761000000000
C      C      0.12445000000000     0.19212000000000     0.51239000000000
C      C      0.20260000000000     0.36793000000000     0.90991000000000
C      C      0.79740000000000     0.63207000000000     0.09009000000000
C      C      0.79740000000000     0.86793000000000     0.59009000000000
C      C      0.20260000000000     0.13207000000000     0.40991000000000
O      O      0.18951000000000     0.35400000000000     0.10848000000000
O      O      0.81049000000000     0.64600000000000     0.89152000000000
O      O      0.81049000000000     0.85400000000000     0.39152000000000
O      O      0.18951000000000     0.14600000000000     0.60848000000000
C      C      0.79995000000000     0.07090000000000     0.86024000000000
C      C      0.20005000000000     0.92910000000000     0.13976000000000
C      C      0.20005000000000     0.57090000000000     0.63976000000000
C      C      0.79995000000000     0.42910000000000     0.36024000000000
N      N      0.68543000000000     0.98678000000000     0.82995000000000
N      N      0.31457000000000     0.01322000000000     0.17005000000000
N      N      0.31457000000000     0.48678000000000     0.67005000000000
N      N      0.68543000000000     0.51322000000000     0.32995000000000
H      H      0.89282000000000     0.13502000000000     0.07645000000000
H      H      0.10718000000000     0.86498000000000     0.92355000000000
H      H      0.10718000000000     0.63502000000000     0.42355000000000
H      H      0.89282000000000     0.36498000000000     0.57645000000000
H      H      0.31827000000000     0.45393000000000     0.89307000000000
H      H      0.68173000000000     0.54607000000000     0.10693000000000
H      H      0.68173000000000     0.95393000000000     0.60693000000000
H      H      0.31827000000000     0.04607000000000     0.39307000000000
H      H      0.11682000000000     0.29879000000000     0.17138000000000
H      H      0.88318000000000     0.70121000000000     0.82862000000000
H      H      0.88318000000000     0.79879000000000     0.32862000000000
H      H      0.11682000000000     0.20121000000000     0.67138000000000
