data_default
_cell_volume           301.953501
_symmetry_space_group_name_H-M 'P 1'
_symmetry_Int_Tables_number 1
loop_
_symmetry_equiv_pos_site_id
_symmetry_equiv_pos_as_xyz
1 x,y,z
_cell_length_a         6.1640000000
_cell_length_b         7.1410000000
_cell_length_c        10.6300000000
_cell_angle_alpha       128.2520
_cell_angle_beta       121.2560
_cell_angle_gamma        82.1670
_cell_formula_units_Z 1
loop_
_atom_site_label
_atom_site_type_symbol
_atom_site_fract_x
_atom_site_fract_y
_atom_site_fract_z
C      C      0.69898000000000     0.88706000000000     0.17282000000000
C      C      0.30102000000000     0.11294000000000     0.82718000000000
C      C      0.01491000000000     0.82864000000000     0.09785000000000
C      C      0.98509000000000     0.17136000000000     0.90215000000000
C      C      0.95482000000000     0.94468000000000     0.24434000000000
C      C      0.04518000000000     0.05532000000000     0.75566000000000
C      C      0.79304000000000     0.68747000000000     0.92088000000000
C      C      0.20696000000000     0.31253000000000     0.07912000000000
S      S      0.49977000000000     0.68241000000000     0.91575000000000
S      S      0.50023000000000     0.31759000000000     0.08425000000000
C      C      0.78860000000000     0.54994000000000     0.74756000000000
C      C      0.21140000000000     0.45006000000000     0.25244000000000
N      N      0.78507000000000     0.43939000000000     0.60824000000000
N      N      0.21493000000000     0.56061000000000     0.39176000000000
H      H      0.61936000000000     0.95613000000000     0.26018000000000
H      H      0.38064000000000     0.04387000000000     0.73982000000000
O      O      0.13949000000000     0.09592000000000     0.43417000000000
O      O      0.86051000000000     0.90408000000000     0.56583000000000
H      H      0.21186000000000     0.85369000000000     0.12860000000000
H      H      0.78814000000000     0.14631000000000     0.87140000000000
H      H      0.31335000000000     0.12091000000000     0.46490000000000
H      H      0.68665000000000     0.87909000000000     0.53510000000000
