data_default
_cell_volume           591.366203
_symmetry_space_group_name_H-M 'P 1'
_symmetry_Int_Tables_number 1
loop_
_symmetry_equiv_pos_site_id
_symmetry_equiv_pos_as_xyz
1 x,y,z
_cell_length_a         3.6900000000
_cell_length_b        15.7900000000
_cell_length_c        13.5100000000
_cell_angle_alpha        90.0000
_cell_angle_beta       131.3000
_cell_angle_gamma        90.0000
_cell_formula_units_Z 1
loop_
_atom_site_label
_atom_site_type_symbol
_atom_site_fract_x
_atom_site_fract_y
_atom_site_fract_z
H      H      0.99520000000000     0.99732000000000     0.12922000000000
H      H      0.00480000000000     0.00268000000000     0.87078000000000
H      H      0.00480000000000     0.49732000000000     0.37078000000000
H      H      0.99520000000000     0.50268000000000     0.62922000000000
C      C      0.08475000000000     0.06164000000000     0.16268000000000
C      C      0.91525000000000     0.93836000000000     0.83732000000000
C      C      0.91525000000000     0.56164000000000     0.33732000000000
C      C      0.08475000000000     0.43836000000000     0.66268000000000
C      C      0.33122000000000     0.09053000000000     0.28616000000000
C      C      0.66878000000000     0.90947000000000     0.71384000000000
C      C      0.66878000000000     0.59053000000000     0.21384000000000
C      C      0.33122000000000     0.40947000000000     0.78616000000000
O      O      0.52067000000000     0.04556000000000     0.39530000000000
O      O      0.47933000000000     0.95444000000000     0.60470000000000
O      O      0.47933000000000     0.54556000000000     0.10470000000000
O      O      0.52067000000000     0.45444000000000     0.89530000000000
H      H      0.46185000000000     0.98710000000000     0.37675000000000
H      H      0.53815000000000     0.01290000000000     0.62325000000000
H      H      0.53815000000000     0.48710000000000     0.12325000000000
H      H      0.46185000000000     0.51290000000000     0.87675000000000
C      C      0.38625000000000     0.18068000000000     0.29597000000000
C      C      0.61375000000000     0.81932000000000     0.70403000000000
C      C      0.61375000000000     0.68068000000000     0.20403000000000
C      C      0.38625000000000     0.31932000000000     0.79597000000000
H      H      0.57216000000000     0.21487000000000     0.38648000000000
H      H      0.42784000000000     0.78513000000000     0.61352000000000
H      H      0.42784000000000     0.71487000000000     0.11352000000000
H      H      0.57216000000000     0.28513000000000     0.88648000000000
C      C      0.17725000000000     0.21647000000000     0.17850000000000
C      C      0.82275000000000     0.78353000000000     0.82150000000000
C      C      0.82275000000000     0.71647000000000     0.32150000000000
C      C      0.17725000000000     0.28353000000000     0.67850000000000
C      C      0.16632000000000     0.30499000000000     0.15399000000000
C      C      0.83368000000000     0.69501000000000     0.84601000000000
C      C      0.83368000000000     0.80499000000000     0.34601000000000
C      C      0.16632000000000     0.19501000000000     0.65399000000000
N      N      0.15634000000000     0.37520000000000     0.13386000000000
N      N      0.84366000000000     0.62480000000000     0.86614000000000
N      N      0.84366000000000     0.87520000000000     0.36614000000000
N      N      0.15634000000000     0.12480000000000     0.63386000000000
S      S      0.90900000000000     0.14263000000000     0.05310000000000
S      S      0.09100000000000     0.85737000000000     0.94690000000000
S      S      0.09100000000000     0.64263000000000     0.44690000000000
S      S      0.90900000000000     0.35737000000000     0.55310000000000
