data_default
_cell_volume           599.445000
_symmetry_space_group_name_H-M 'P 1'
_symmetry_Int_Tables_number 1
loop_
_symmetry_equiv_pos_site_id
_symmetry_equiv_pos_as_xyz
1 x,y,z
_cell_length_a         4.4000000000
_cell_length_b         8.6500000000
_cell_length_c        15.7500000000
_cell_angle_alpha        90.0000
_cell_angle_beta        90.0000
_cell_angle_gamma        90.0000
_cell_formula_units_Z 1
loop_
_atom_site_label
_atom_site_type_symbol
_atom_site_fract_x
_atom_site_fract_y
_atom_site_fract_z
H      H      0.41239000000000     0.10907000000000     0.51403000000000
H      H      0.08761000000000     0.89093000000000     0.01403000000000
H      H      0.91239000000000     0.39093000000000     0.48597000000000
H      H      0.58761000000000     0.60907000000000     0.98597000000000
C      C      0.36901000000000     0.08384000000000     0.44854000000000
C      C      0.13099000000000     0.91616000000000     0.94854000000000
C      C      0.86901000000000     0.41616000000000     0.55146000000000
C      C      0.63099000000000     0.58384000000000     0.05146000000000
C      C      0.20402000000000     0.96642000000000     0.41637000000000
C      C      0.29598000000000     0.03358000000000     0.91637000000000
C      C      0.70402000000000     0.53358000000000     0.58363000000000
C      C      0.79598000000000     0.46642000000000     0.08363000000000
O      O      0.05653000000000     0.85440000000000     0.45879000000000
O      O      0.44347000000000     0.14560000000000     0.95879000000000
O      O      0.55653000000000     0.64560000000000     0.54121000000000
O      O      0.94347000000000     0.35440000000000     0.04121000000000
H      H      0.08003000000000     0.86572000000000     0.51800000000000
H      H      0.41997000000000     0.13428000000000     0.01800000000000
H      H      0.58003000000000     0.63428000000000     0.48200000000000
H      H      0.91997000000000     0.36572000000000     0.98200000000000
C      C      0.19296000000000     0.96735000000000     0.32553000000000
C      C      0.30704000000000     0.03265000000000     0.82553000000000
C      C      0.69296000000000     0.53265000000000     0.67447000000000
C      C      0.80704000000000     0.46735000000000     0.17447000000000
H      H      0.07232000000000     0.88280000000000     0.28887000000000
H      H      0.42768000000000     0.11720000000000     0.78887000000000
H      H      0.57232000000000     0.61720000000000     0.71113000000000
H      H      0.92768000000000     0.38280000000000     0.21113000000000
C      C      0.35142000000000     0.08646000000000     0.29255000000000
C      C      0.14858000000000     0.91354000000000     0.79255000000000
C      C      0.85142000000000     0.41354000000000     0.70745000000000
C      C      0.64858000000000     0.58646000000000     0.20745000000000
C      C      0.38637000000000     0.12077000000000     0.20422000000000
C      C      0.11363000000000     0.87923000000000     0.70422000000000
C      C      0.88637000000000     0.37923000000000     0.79578000000000
C      C      0.61363000000000     0.62077000000000     0.29578000000000
N      N      0.41502000000000     0.14867000000000     0.13417000000000
N      N      0.08498000000000     0.85133000000000     0.63417000000000
N      N      0.91502000000000     0.35133000000000     0.86583000000000
N      N      0.58498000000000     0.64867000000000     0.36583000000000
S      S      0.51793000000000     0.20051000000000     0.36994000000000
S      S      0.98207000000000     0.79949000000000     0.86994000000000
S      S      0.01793000000000     0.29949000000000     0.63006000000000
S      S      0.48207000000000     0.70051000000000     0.13006000000000
