data_default
_cell_volume          1144.002443
_symmetry_space_group_name_H-M 'P 1'
_symmetry_Int_Tables_number 1
loop_
_symmetry_equiv_pos_site_id
_symmetry_equiv_pos_as_xyz
1 x,y,z
_cell_length_a        12.7470000000
_cell_length_b         8.2530000000
_cell_length_c        10.9580000000
_cell_angle_alpha        90.0000
_cell_angle_beta        97.0800
_cell_angle_gamma        90.0000
_cell_formula_units_Z 1
loop_
_atom_site_label
_atom_site_type_symbol
_atom_site_fract_x
_atom_site_fract_y
_atom_site_fract_z
H      H      0.13454000000000     0.45263000000000     0.25085000000000
H      H      0.63454000000000     0.95263000000000     0.25085000000000
H      H      0.86546000000000     0.54737000000000     0.74915000000000
H      H      0.36546000000000     0.04737000000000     0.74915000000000
H      H      0.86546000000000     0.45263000000000     0.24915000000000
H      H      0.36546000000000     0.95263000000000     0.24915000000000
H      H      0.13454000000000     0.54737000000000     0.75085000000000
H      H      0.63454000000000     0.04737000000000     0.75085000000000
C      C      0.13136000000000     0.34427000000000     0.30406000000000
C      C      0.63136000000000     0.84427000000000     0.30406000000000
C      C      0.86864000000000     0.65573000000000     0.69594000000000
C      C      0.36864000000000     0.15573000000000     0.69594000000000
C      C      0.86864000000000     0.34427000000000     0.19594000000000
C      C      0.36864000000000     0.84427000000000     0.19594000000000
C      C      0.13136000000000     0.65573000000000     0.80406000000000
C      C      0.63136000000000     0.15573000000000     0.80406000000000
C      C      0.12332000000000     0.33206000000000     0.42524000000000
C      C      0.62332000000000     0.83206000000000     0.42524000000000
C      C      0.87668000000000     0.66794000000000     0.57476000000000
C      C      0.37668000000000     0.16794000000000     0.57476000000000
C      C      0.87668000000000     0.33206000000000     0.07476000000000
C      C      0.37668000000000     0.83206000000000     0.07476000000000
C      C      0.12332000000000     0.66794000000000     0.92524000000000
C      C      0.62332000000000     0.16794000000000     0.92524000000000
O      O      0.11742000000000     0.45243000000000     0.50674000000000
O      O      0.61742000000000     0.95243000000000     0.50674000000000
O      O      0.88258000000000     0.54757000000000     0.49326000000000
O      O      0.38258000000000     0.04757000000000     0.49326000000000
O      O      0.88258000000000     0.45243000000000     0.99326000000000
O      O      0.38258000000000     0.95243000000000     0.99326000000000
O      O      0.11742000000000     0.54757000000000     0.00674000000000
O      O      0.61742000000000     0.04757000000000     0.00674000000000
C      C      0.12119000000000     0.16779000000000     0.46665000000000
C      C      0.62119000000000     0.66779000000000     0.46665000000000
C      C      0.87881000000000     0.83221000000000     0.53335000000000
C      C      0.37881000000000     0.33221000000000     0.53335000000000
C      C      0.87881000000000     0.16779000000000     0.03335000000000
C      C      0.37881000000000     0.66779000000000     0.03335000000000
C      C      0.12119000000000     0.83221000000000     0.96665000000000
C      C      0.62119000000000     0.33221000000000     0.96665000000000
H      H      0.11499000000000     0.13461000000000     0.56017000000000
H      H      0.61499000000000     0.63461000000000     0.56017000000000
H      H      0.88501000000000     0.86539000000000     0.43983000000000
H      H      0.38501000000000     0.36539000000000     0.43983000000000
H      H      0.88501000000000     0.13461000000000     0.93983000000000
H      H      0.38501000000000     0.63461000000000     0.93983000000000
H      H      0.11499000000000     0.86539000000000     0.06017000000000
H      H      0.61499000000000     0.36539000000000     0.06017000000000
C      C      0.12773000000000     0.06161000000000     0.37437000000000
C      C      0.62773000000000     0.56161000000000     0.37437000000000
C      C      0.87227000000000     0.93839000000000     0.62563000000000
C      C      0.37227000000000     0.43839000000000     0.62563000000000
C      C      0.87227000000000     0.06161000000000     0.12563000000000
C      C      0.37227000000000     0.56161000000000     0.12563000000000
C      C      0.12773000000000     0.93839000000000     0.87437000000000
C      C      0.62773000000000     0.43839000000000     0.87437000000000
C      C      0.12768000000000     0.88884000000000     0.38446000000000
C      C      0.62768000000000     0.38884000000000     0.38446000000000
C      C      0.87232000000000     0.11116000000000     0.61554000000000
C      C      0.37232000000000     0.61116000000000     0.61554000000000
C      C      0.87232000000000     0.88884000000000     0.11554000000000
C      C      0.37232000000000     0.38884000000000     0.11554000000000
C      C      0.12768000000000     0.11116000000000     0.88446000000000
C      C      0.62768000000000     0.61116000000000     0.88446000000000
N      N      0.12768000000000     0.75147000000000     0.39190000000000
N      N      0.62768000000000     0.25147000000000     0.39190000000000
N      N      0.87232000000000     0.24853000000000     0.60810000000000
N      N      0.37232000000000     0.74853000000000     0.60810000000000
N      N      0.87232000000000     0.75147000000000     0.10810000000000
N      N      0.37232000000000     0.25147000000000     0.10810000000000
N      N      0.12768000000000     0.24853000000000     0.89190000000000
N      N      0.62768000000000     0.74853000000000     0.89190000000000
S      S      0.13664000000000     0.15678000000000     0.23524000000000
S      S      0.63664000000000     0.65678000000000     0.23524000000000
S      S      0.86336000000000     0.84322000000000     0.76476000000000
S      S      0.36336000000000     0.34322000000000     0.76476000000000
S      S      0.86336000000000     0.15678000000000     0.26476000000000
S      S      0.36336000000000     0.65678000000000     0.26476000000000
S      S      0.13664000000000     0.84322000000000     0.73524000000000
S      S      0.63664000000000     0.34322000000000     0.73524000000000
H      H      0.11980000000000     0.55750000000000     0.46490000000000
H      H      0.61980000000000     0.05750000000000     0.46490000000000
H      H      0.88020000000000     0.44250000000000     0.53510000000000
H      H      0.38020000000000     0.94250000000000     0.53510000000000
H      H      0.88020000000000     0.55750000000000     0.03510000000000
H      H      0.38020000000000     0.05750000000000     0.03510000000000
H      H      0.11980000000000     0.44250000000000     0.96490000000000
H      H      0.61980000000000     0.94250000000000     0.96490000000000
