data_default
_cell_volume           288.531926
_symmetry_space_group_name_H-M 'P 1'
_symmetry_Int_Tables_number 1
loop_
_symmetry_equiv_pos_site_id
_symmetry_equiv_pos_as_xyz
1 x,y,z
_cell_length_a         7.5550000000
_cell_length_b        10.0570000000
_cell_length_c         3.8190000000
_cell_angle_alpha        90.0000
_cell_angle_beta        96.0910
_cell_angle_gamma        90.0000
_cell_formula_units_Z 1
loop_
_atom_site_label
_atom_site_type_symbol
_atom_site_fract_x
_atom_site_fract_y
_atom_site_fract_z
H      H      0.44697000000000     0.14085000000000     0.73181000000000
H      H      0.55303000000000     0.64085000000000     0.26819000000000
C      C      0.34110000000000     0.08699000000000     0.58641000000000
C      C      0.65890000000000     0.58699000000000     0.41359000000000
C      C      0.34306000000000     0.95996000000000     0.47412000000000
C      C      0.65694000000000     0.45996000000000     0.52588000000000
O      O      0.47760000000000     0.87207000000000     0.51879000000000
O      O      0.52240000000000     0.37207000000000     0.48121000000000
C      C      0.17785000000000     0.91960000000000     0.28617000000000
C      C      0.82215000000000     0.41960000000000     0.71383000000000
H      H      0.15471000000000     0.82196000000000     0.17756000000000
H      H      0.84529000000000     0.32196000000000     0.82244000000000
C      C      0.05671000000000     0.01853000000000     0.26381000000000
C      C      0.94329000000000     0.51853000000000     0.73619000000000
C      C      0.87890000000000     0.01121000000000     0.09408000000000
C      C      0.12110000000000     0.51121000000000     0.90592000000000
N      N      0.73745000000000     0.00599000000000     0.95960000000000
N      N      0.26255000000000     0.50599000000000     0.04040000000000
S      S      0.13853000000000     0.16284000000000     0.46856000000000
S      S      0.86147000000000     0.66284000000000     0.53144000000000
H      H      0.58140000000000     0.91400000000000     0.65170000000000
H      H      0.41860000000000     0.41400000000000     0.34830000000000
