data_default
_cell_volume           584.391640
_symmetry_space_group_name_H-M 'P 1'
_symmetry_Int_Tables_number 1
loop_
_symmetry_equiv_pos_site_id
_symmetry_equiv_pos_as_xyz
1 x,y,z
_cell_length_a         3.8800000000
_cell_length_b        14.5870000000
_cell_length_c        10.3310000000
_cell_angle_alpha        90.0000
_cell_angle_beta        91.8890
_cell_angle_gamma        90.0000
_cell_formula_units_Z 1
loop_
_atom_site_label
_atom_site_type_symbol
_atom_site_fract_x
_atom_site_fract_y
_atom_site_fract_z
H      H      0.30325000000000     0.51528000000000     0.36594000000000
H      H      0.69675000000000     0.48472000000000     0.63406000000000
H      H      0.69675000000000     0.01528000000000     0.13406000000000
H      H      0.30325000000000     0.98472000000000     0.86594000000000
C      C      0.29366000000000     0.44484000000000     0.33675000000000
C      C      0.70634000000000     0.55516000000000     0.66325000000000
C      C      0.70634000000000     0.94484000000000     0.16325000000000
C      C      0.29366000000000     0.05516000000000     0.83675000000000
C      C      0.40210000000000     0.40823000000000     0.22541000000000
C      C      0.59790000000000     0.59177000000000     0.77459000000000
C      C      0.59790000000000     0.90823000000000     0.27459000000000
C      C      0.40210000000000     0.09177000000000     0.72541000000000
O      O      0.54673000000000     0.45145000000000     0.12592000000000
O      O      0.45327000000000     0.54855000000000     0.87408000000000
O      O      0.45327000000000     0.95145000000000     0.37408000000000
O      O      0.54673000000000     0.04855000000000     0.62592000000000
C      C      0.34997000000000     0.31124000000000     0.21799000000000
C      C      0.65003000000000     0.68876000000000     0.78201000000000
C      C      0.65003000000000     0.81124000000000     0.28201000000000
C      C      0.34997000000000     0.18876000000000     0.71799000000000
H      H      0.42071000000000     0.27042000000000     0.13662000000000
H      H      0.57929000000000     0.72958000000000     0.86338000000000
H      H      0.57929000000000     0.77042000000000     0.36338000000000
H      H      0.42071000000000     0.22958000000000     0.63662000000000
C      C      0.20307000000000     0.27818000000000     0.32487000000000
C      C      0.79693000000000     0.72182000000000     0.67513000000000
C      C      0.79693000000000     0.77818000000000     0.17513000000000
C      C      0.20307000000000     0.22182000000000     0.82487000000000
C      C      0.11651000000000     0.18450000000000     0.34847000000000
C      C      0.88349000000000     0.81550000000000     0.65153000000000
C      C      0.88349000000000     0.68450000000000     0.15153000000000
C      C      0.11651000000000     0.31550000000000     0.84847000000000
N      N      0.04714000000000     0.11015000000000     0.36778000000000
N      N      0.95286000000000     0.88985000000000     0.63222000000000
N      N      0.95286000000000     0.61015000000000     0.13222000000000
N      N      0.04714000000000     0.38985000000000     0.86778000000000
S      S      0.12377000000000     0.36304000000000     0.43720000000000
S      S      0.87623000000000     0.63696000000000     0.56280000000000
S      S      0.87623000000000     0.86304000000000     0.06280000000000
S      S      0.12377000000000     0.13696000000000     0.93720000000000
H      H      0.56550000000000     0.51730000000000     0.14510000000000
H      H      0.43450000000000     0.48270000000000     0.85490000000000
H      H      0.43450000000000     0.01730000000000     0.35490000000000
H      H      0.56550000000000     0.98270000000000     0.64510000000000
