data_default
_cell_volume           548.881084
_symmetry_space_group_name_H-M 'P 1'
_symmetry_Int_Tables_number 1
loop_
_symmetry_equiv_pos_site_id
_symmetry_equiv_pos_as_xyz
1 x,y,z
_cell_length_a        17.2240470000
_cell_length_b         3.7261740000
_cell_length_c         8.5522410000
_cell_angle_alpha        90.0000
_cell_angle_beta        90.0000
_cell_angle_gamma        90.0000
_cell_formula_units_Z 1
loop_
_atom_site_label
_atom_site_type_symbol
_atom_site_fract_x
_atom_site_fract_y
_atom_site_fract_z
S      S      0.21282400000000     0.02760600000000     0.99516300000000
S      S      0.78717600000000     0.97239400000000     0.49516300000000
S      S      0.28717600000000     0.52760600000000     0.49516300000000
S      S      0.71282400000000     0.47239400000000     0.99516300000000
C      C      0.17398700000000     0.07740200000000     0.17872700000000
C      C      0.82601300000000     0.92259800000000     0.67872700000000
C      C      0.32601300000000     0.57740200000000     0.67872700000000
C      C      0.67398700000000     0.42259800000000     0.17872700000000
C      C      0.09710600000000     0.18263600000000     0.17276200000000
C      C      0.90289400000000     0.81736400000000     0.67276200000000
C      C      0.40289400000000     0.68263600000000     0.67276200000000
C      C      0.59710600000000     0.31736400000000     0.17276200000000
C      C      0.06918200000000     0.22351500000000     0.01838500000000
C      C      0.93081800000000     0.77648500000000     0.51838500000000
C      C      0.43081800000000     0.72351500000000     0.51838500000000
C      C      0.56918200000000     0.27648500000000     0.01838500000000
C      C      0.12592700000000     0.14780400000000     0.90884600000000
C      C      0.87407300000000     0.85219600000000     0.40884600000000
C      C      0.37407300000000     0.64780400000000     0.40884600000000
C      C      0.62592700000000     0.35219600000000     0.90884600000000
C      C      0.11800400000000     0.16161800000000     0.74371200000000
C      C      0.88199600000000     0.83838200000000     0.24371200000000
C      C      0.38199600000000     0.66161800000000     0.24371200000000
C      C      0.61800400000000     0.33838200000000     0.74371200000000
N      N      0.11166000000000     0.17272400000000     0.60577900000000
N      N      0.88834000000000     0.82727600000000     0.10577900000000
N      N      0.38834000000000     0.67272400000000     0.10577900000000
N      N      0.61166000000000     0.32727600000000     0.60577900000000
O      O      0.04872900000000     0.24651000000000     0.29628200000000
O      O      0.95127100000000     0.75349000000000     0.79628200000000
O      O      0.45127100000000     0.74651000000000     0.79628200000000
O      O      0.54872900000000     0.25349000000000     0.29628200000000
H      H      0.20912200000000     0.02746300000000     0.28080200000000
H      H      0.79087800000000     0.97253700000000     0.78080200000000
H      H      0.29087800000000     0.52746300000000     0.78080200000000
H      H      0.70912200000000     0.47253700000000     0.28080200000000
H      H      0.07690400000000     0.20665400000000     0.39227500000000
H      H      0.92309600000000     0.79334600000000     0.89227500000000
H      H      0.42309600000000     0.70665400000000     0.89227500000000
H      H      0.57690400000000     0.29334600000000     0.39227500000000
H      H      0.01068500000000     0.30387700000000     0.98939900000000
H      H      0.98931500000000     0.69612300000000     0.48939900000000
H      H      0.48931500000000     0.80387700000000     0.48939900000000
H      H      0.51068500000000     0.19612300000000     0.98939900000000
