data_default
_cell_volume           521.772171
_symmetry_space_group_name_H-M 'P 1'
_symmetry_Int_Tables_number 1
loop_
_symmetry_equiv_pos_site_id
_symmetry_equiv_pos_as_xyz
1 x,y,z
_cell_length_a         5.4934000000
_cell_length_b         6.1975000000
_cell_length_c        15.3258000000
_cell_angle_alpha        90.0000
_cell_angle_beta        90.0000
_cell_angle_gamma        90.0000
_cell_formula_units_Z 1
loop_
_atom_site_label
_atom_site_type_symbol
_atom_site_fract_x
_atom_site_fract_y
_atom_site_fract_z
S      S      0.12029000000000     0.19151000000000     0.42367000000000
S      S      0.37971000000000     0.80849000000000     0.92367000000000
S      S      0.62029000000000     0.30849000000000     0.57633000000000
S      S      0.87971000000000     0.69151000000000     0.07633000000000
C      C      0.86175000000000     0.11970000000000     0.36742000000000
C      C      0.63825000000000     0.88030000000000     0.86742000000000
C      C      0.36175000000000     0.38030000000000     0.63258000000000
C      C      0.13825000000000     0.61970000000000     0.13258000000000
C      C      0.76726000000000     0.29049000000000     0.32241000000000
C      C      0.73274000000000     0.70951000000000     0.82241000000000
C      C      0.26726000000000     0.20951000000000     0.67759000000000
C      C      0.23274000000000     0.79049000000000     0.17759000000000
C      C      0.90560000000000     0.48217000000000     0.33349000000000
C      C      0.59440000000000     0.51783000000000     0.83349000000000
C      C      0.40560000000000     0.01783000000000     0.66651000000000
C      C      0.09440000000000     0.98217000000000     0.16651000000000
C      C      0.10237000000000     0.45306000000000     0.38670000000000
C      C      0.39763000000000     0.54694000000000     0.88670000000000
C      C      0.60237000000000     0.04694000000000     0.61330000000000
C      C      0.89763000000000     0.95306000000000     0.11330000000000
C      C      0.28349000000000     0.60834000000000     0.41308000000000
C      C      0.21651000000000     0.39166000000000     0.91308000000000
C      C      0.78349000000000     0.89166000000000     0.58692000000000
C      C      0.71651000000000     0.10834000000000     0.08692000000000
N      N      0.42667000000000     0.73108000000000     0.43393000000000
N      N      0.07333000000000     0.26892000000000     0.93393000000000
N      N      0.92667000000000     0.76892000000000     0.56607000000000
N      N      0.57333000000000     0.23108000000000     0.06607000000000
O      O      0.56175000000000     0.27824000000000     0.27213000000000
O      O      0.93825000000000     0.72176000000000     0.77213000000000
O      O      0.06175000000000     0.22176000000000     0.72787000000000
O      O      0.43825000000000     0.77824000000000     0.22787000000000
H      H      0.79725000000000     0.96214000000000     0.37071000000000
H      H      0.70275000000000     0.03786000000000     0.87071000000000
H      H      0.29725000000000     0.53786000000000     0.62929000000000
H      H      0.20275000000000     0.46214000000000     0.12929000000000
H      H      0.86188000000000     0.62861000000000     0.30430000000000
H      H      0.63812000000000     0.37139000000000     0.80430000000000
H      H      0.36188000000000     0.87139000000000     0.69570000000000
H      H      0.13812000000000     0.12861000000000     0.19570000000000
H      H      0.52987000000000     0.42502000000000     0.24588000000000
H      H      0.97013000000000     0.57498000000000     0.74588000000000
H      H      0.02987000000000     0.07498000000000     0.75412000000000
H      H      0.47013000000000     0.92502000000000     0.25412000000000
