data_default
_cell_volume           534.096893
_symmetry_space_group_name_H-M 'P 1'
_symmetry_Int_Tables_number 1
loop_
_symmetry_equiv_pos_site_id
_symmetry_equiv_pos_as_xyz
1 x,y,z
_cell_length_a         6.9571000000
_cell_length_b         8.4569000000
_cell_length_c         9.0778000000
_cell_angle_alpha        90.0000
_cell_angle_beta        90.0000
_cell_angle_gamma        90.0000
_cell_formula_units_Z 1
loop_
_atom_site_label
_atom_site_type_symbol
_atom_site_fract_x
_atom_site_fract_y
_atom_site_fract_z
S      S      0.38078000000000     0.16030000000000     0.32866000000000
S      S      0.11922000000000     0.83970000000000     0.82866000000000
S      S      0.88078000000000     0.33970000000000     0.67134000000000
S      S      0.61922000000000     0.66030000000000     0.17134000000000
C      C      0.37598000000000     0.34067000000000     0.41613000000000
C      C      0.12402000000000     0.65933000000000     0.91613000000000
C      C      0.87598000000000     0.15933000000000     0.58387000000000
C      C      0.62402000000000     0.84067000000000     0.08387000000000
C      C      0.37070000000000     0.32371000000000     0.56571000000000
C      C      0.12930000000000     0.67629000000000     0.06571000000000
C      C      0.87070000000000     0.17629000000000     0.43429000000000
C      C      0.62930000000000     0.82371000000000     0.93429000000000
C      C      0.37051000000000     0.16274000000000     0.61038000000000
C      C      0.12949000000000     0.83726000000000     0.11038000000000
C      C      0.87051000000000     0.33726000000000     0.38962000000000
C      C      0.62949000000000     0.66274000000000     0.88962000000000
C      C      0.37566000000000     0.06070000000000     0.49380000000000
C      C      0.12434000000000     0.93930000000000     0.99380000000000
C      C      0.87566000000000     0.43930000000000     0.50620000000000
C      C      0.62434000000000     0.56070000000000     0.00620000000000
C      C      0.37714000000000     0.89019000000000     0.49517000000000
C      C      0.12286000000000     0.10981000000000     0.99517000000000
C      C      0.87714000000000     0.60981000000000     0.50483000000000
C      C      0.62286000000000     0.39019000000000     0.00483000000000
N      N      0.37831000000000     0.75541000000000     0.49626000000000
N      N      0.12169000000000     0.24459000000000     0.99626000000000
N      N      0.87831000000000     0.74459000000000     0.50374000000000
N      N      0.62169000000000     0.25541000000000     0.00374000000000
O      O      0.36608000000000     0.44823000000000     0.66201000000000
O      O      0.13392000000000     0.55177000000000     0.16201000000000
O      O      0.86608000000000     0.05177000000000     0.33799000000000
O      O      0.63392000000000     0.94823000000000     0.83799000000000
H      H      0.37729000000000     0.44440000000000     0.35461000000000
H      H      0.12271000000000     0.55560000000000     0.85461000000000
H      H      0.87729000000000     0.05560000000000     0.64539000000000
H      H      0.62271000000000     0.94440000000000     0.14539000000000
H      H      0.36686000000000     0.12654000000000     0.71983000000000
H      H      0.13314000000000     0.87346000000000     0.21983000000000
H      H      0.86686000000000     0.37346000000000     0.28017000000000
H      H      0.63314000000000     0.62654000000000     0.78017000000000
H      H      0.36731000000000     0.54976000000000     0.60341000000000
H      H      0.13269000000000     0.45024000000000     0.10341000000000
H      H      0.86731000000000     0.95024000000000     0.39659000000000
H      H      0.63269000000000     0.04976000000000     0.89659000000000
