data_default
_cell_volume           521.112848
_symmetry_space_group_name_H-M 'P 1'
_symmetry_Int_Tables_number 1
loop_
_symmetry_equiv_pos_site_id
_symmetry_equiv_pos_as_xyz
1 x,y,z
_cell_length_a         9.8944000000
_cell_length_b         5.4159000000
_cell_length_c         9.7278000000
_cell_angle_alpha        90.0000
_cell_angle_beta        91.4700
_cell_angle_gamma        90.0000
_cell_formula_units_Z 1
loop_
_atom_site_label
_atom_site_type_symbol
_atom_site_fract_x
_atom_site_fract_y
_atom_site_fract_z
S      S      0.24170000000000     0.15407000000000     0.09058000000000
S      S      0.75830000000000     0.84593000000000     0.90942000000000
S      S      0.75830000000000     0.65407000000000     0.40942000000000
S      S      0.24170000000000     0.34593000000000     0.59058000000000
C      C      0.35668000000000     0.17689000000000     0.96155000000000
C      C      0.64332000000000     0.82311000000000     0.03845000000000
C      C      0.64332000000000     0.67689000000000     0.53845000000000
C      C      0.35668000000000     0.32311000000000     0.46155000000000
C      C      0.35217000000000     0.97468000000000     0.87765000000000
C      C      0.64783000000000     0.02532000000000     0.12235000000000
C      C      0.64783000000000     0.47468000000000     0.62235000000000
C      C      0.35217000000000     0.52532000000000     0.37765000000000
C      C      0.25446000000000     0.79870000000000     0.91811000000000
C      C      0.74554000000000     0.20130000000000     0.08189000000000
C      C      0.74554000000000     0.29870000000000     0.58189000000000
C      C      0.25446000000000     0.70130000000000     0.41811000000000
C      C      0.18673000000000     0.87084000000000     0.03194000000000
C      C      0.81327000000000     0.12916000000000     0.96806000000000
C      C      0.81327000000000     0.37084000000000     0.46806000000000
C      C      0.18673000000000     0.62916000000000     0.53194000000000
C      C      0.08140000000000     0.74269000000000     0.10277000000000
C      C      0.91860000000000     0.25731000000000     0.89723000000000
C      C      0.91860000000000     0.24269000000000     0.39723000000000
C      C      0.08140000000000     0.75731000000000     0.60277000000000
N      N      0.99813000000000     0.64139000000000     0.15875000000000
N      N      0.00187000000000     0.35861000000000     0.84125000000000
N      N      0.00187000000000     0.14139000000000     0.34125000000000
N      N      0.99813000000000     0.85861000000000     0.65875000000000
O      O      0.43298000000000     0.94491000000000     0.76671000000000
O      O      0.56702000000000     0.05509000000000     0.23329000000000
O      O      0.56702000000000     0.44491000000000     0.73329000000000
O      O      0.43298000000000     0.55509000000000     0.26671000000000
H      H      0.41834000000000     0.33180000000000     0.95539000000000
H      H      0.58166000000000     0.66820000000000     0.04461000000000
H      H      0.58166000000000     0.83180000000000     0.54461000000000
H      H      0.41834000000000     0.16820000000000     0.45539000000000
H      H      0.23645000000000     0.63310000000000     0.86672000000000
H      H      0.76355000000000     0.36690000000000     0.13328000000000
H      H      0.76355000000000     0.13310000000000     0.63328000000000
H      H      0.23645000000000     0.86690000000000     0.36672000000000
H      H      0.49339000000000     0.09447000000000     0.75970000000000
H      H      0.50661000000000     0.90553000000000     0.24030000000000
H      H      0.50661000000000     0.59447000000000     0.74030000000000
H      H      0.49339000000000     0.40553000000000     0.25970000000000
