data_default
_cell_volume           274.337101
_symmetry_space_group_name_H-M 'P 1'
_symmetry_Int_Tables_number 1
loop_
_symmetry_equiv_pos_site_id
_symmetry_equiv_pos_as_xyz
1 x,y,z
_cell_length_a        10.5291000000
_cell_length_b         7.3145000000
_cell_length_c         3.9020000000
_cell_angle_alpha        90.0000
_cell_angle_beta        65.9087
_cell_angle_gamma        90.0000
_cell_formula_units_Z 1
loop_
_atom_site_label
_atom_site_type_symbol
_atom_site_fract_x
_atom_site_fract_y
_atom_site_fract_z
S      S      0.41491000000000     0.97793000000000     0.20874000000000
S      S      0.58509000000000     0.47793000000000     0.79126000000000
C      C      0.25573000000000     0.88736000000000     0.26367000000000
C      C      0.74427000000000     0.38736000000000     0.73633000000000
C      C      0.24741000000000     0.72987000000000     0.12345000000000
C      C      0.75259000000000     0.22987000000000     0.87655000000000
N      N      0.24020000000000     0.59004000000000     0.99828000000000
N      N      0.75980000000000     0.09004000000000     0.00172000000000
C      C      0.14209000000000     0.99867000000000     0.46621000000000
C      C      0.85791000000000     0.49867000000000     0.53379000000000
C      C      0.18327000000000     0.15732000000000     0.58260000000000
C      C      0.81673000000000     0.65732000000000     0.41740000000000
O      O      0.09890000000000     0.29017000000000     0.78695000000000
O      O      0.90110000000000     0.79017000000000     0.21305000000000
H      H      0.14388000000000     0.39323000000000     0.85105000000000
H      H      0.85612000000000     0.89323000000000     0.14895000000000
C      C      0.32538000000000     0.16501000000000     0.46652000000000
C      C      0.67462000000000     0.66501000000000     0.53348000000000
H      H      0.37356000000000     0.27164000000000     0.53092000000000
H      H      0.62644000000000     0.77164000000000     0.46908000000000
H      H      0.04045000000000     0.97023000000000     0.52619000000000
H      H      0.95955000000000     0.47023000000000     0.47381000000000
