data_default
_cell_volume           535.903507
_symmetry_space_group_name_H-M 'P 1'
_symmetry_Int_Tables_number 1
loop_
_symmetry_equiv_pos_site_id
_symmetry_equiv_pos_as_xyz
1 x,y,z
_cell_length_a         7.2430000000
_cell_length_b         8.2990000000
_cell_length_c         9.2100000000
_cell_angle_alpha        90.0000
_cell_angle_beta       104.5300
_cell_angle_gamma        90.0000
_cell_formula_units_Z 1
loop_
_atom_site_label
_atom_site_type_symbol
_atom_site_fract_x
_atom_site_fract_y
_atom_site_fract_z
S      S      0.85431000000000     0.06544000000000     0.67010000000000
S      S      0.14569000000000     0.93456000000000     0.32990000000000
S      S      0.14569000000000     0.56544000000000     0.82990000000000
S      S      0.85431000000000     0.43456000000000     0.17010000000000
C      C      0.74997000000000     0.16224000000000     0.50306000000000
C      C      0.25003000000000     0.83776000000000     0.49694000000000
C      C      0.25003000000000     0.66224000000000     0.99694000000000
C      C      0.74997000000000     0.33776000000000     0.00306000000000
C      C      0.74951000000000     0.31779000000000     0.49439000000000
C      C      0.25049000000000     0.68221000000000     0.50561000000000
C      C      0.25049000000000     0.81779000000000     0.00561000000000
C      C      0.74951000000000     0.18221000000000     0.99439000000000
N      N      0.74910000000000     0.45604000000000     0.48726000000000
N      N      0.25090000000000     0.54396000000000     0.51274000000000
N      N      0.25090000000000     0.95604000000000     0.01274000000000
N      N      0.74910000000000     0.04396000000000     0.98726000000000
C      C      0.67118000000000     0.05824000000000     0.38451000000000
C      C      0.32882000000000     0.94176000000000     0.61549000000000
C      C      0.32882000000000     0.55824000000000     0.11549000000000
C      C      0.67118000000000     0.44176000000000     0.88451000000000
C      C      0.69842000000000     0.89919000000000     0.42815000000000
C      C      0.30158000000000     0.10081000000000     0.57185000000000
C      C      0.30158000000000     0.39919000000000     0.07185000000000
C      C      0.69842000000000     0.60081000000000     0.92815000000000
O      O      0.64125000000000     0.77076000000000     0.34065000000000
O      O      0.35875000000000     0.22924000000000     0.65935000000000
O      O      0.35875000000000     0.27076000000000     0.15935000000000
O      O      0.64125000000000     0.72924000000000     0.84065000000000
H      H      0.67067000000000     0.66517000000000     0.38733000000000
H      H      0.32933000000000     0.33483000000000     0.61267000000000
H      H      0.32933000000000     0.16517000000000     0.11267000000000
H      H      0.67067000000000     0.83483000000000     0.88733000000000
C      C      0.79493000000000     0.88458000000000     0.57653000000000
C      C      0.20507000000000     0.11542000000000     0.42347000000000
C      C      0.20507000000000     0.38458000000000     0.92347000000000
C      C      0.79493000000000     0.61542000000000     0.07653000000000
H      H      0.83090000000000     0.77600000000000     0.62683000000000
H      H      0.16910000000000     0.22400000000000     0.37317000000000
H      H      0.16910000000000     0.27600000000000     0.87317000000000
H      H      0.83090000000000     0.72400000000000     0.12683000000000
H      H      0.60212000000000     0.09123000000000     0.27800000000000
H      H      0.39788000000000     0.90877000000000     0.72200000000000
H      H      0.39788000000000     0.59123000000000     0.22200000000000
H      H      0.60212000000000     0.40877000000000     0.77800000000000
