data_default
_cell_volume           534.235205
_symmetry_space_group_name_H-M 'P 1'
_symmetry_Int_Tables_number 1
loop_
_symmetry_equiv_pos_site_id
_symmetry_equiv_pos_as_xyz
1 x,y,z
_cell_length_a        10.2351000000
_cell_length_b         8.2281000000
_cell_length_c         6.9513000000
_cell_angle_alpha        90.0000
_cell_angle_beta       114.1345
_cell_angle_gamma        90.0000
_cell_formula_units_Z 1
loop_
_atom_site_label
_atom_site_type_symbol
_atom_site_fract_x
_atom_site_fract_y
_atom_site_fract_z
S      S      0.71788000000000     0.43197000000000     0.31015000000000
S      S      0.28212000000000     0.56803000000000     0.68985000000000
S      S      0.78212000000000     0.93197000000000     0.68985000000000
S      S      0.21788000000000     0.06803000000000     0.31015000000000
C      C      0.84877000000000     0.33135000000000     0.25877000000000
C      C      0.15123000000000     0.66865000000000     0.74123000000000
C      C      0.65123000000000     0.83135000000000     0.74123000000000
C      C      0.34877000000000     0.16865000000000     0.25877000000000
C      C      0.85602000000000     0.17440000000000     0.26365000000000
C      C      0.14398000000000     0.82560000000000     0.73635000000000
C      C      0.64398000000000     0.67440000000000     0.73635000000000
C      C      0.35602000000000     0.32560000000000     0.26365000000000
N      N      0.86185000000000     0.03495000000000     0.26650000000000
N      N      0.13815000000000     0.96505000000000     0.73350000000000
N      N      0.63815000000000     0.53495000000000     0.73350000000000
N      N      0.36185000000000     0.46505000000000     0.26650000000000
C      C      0.94153000000000     0.43389000000000     0.21435000000000
C      C      0.05847000000000     0.56611000000000     0.78565000000000
C      C      0.55847000000000     0.93389000000000     0.78565000000000
C      C      0.44153000000000     0.06611000000000     0.21435000000000
C      C      0.90743000000000     0.59516000000000     0.22333000000000
C      C      0.09257000000000     0.40484000000000     0.77667000000000
C      C      0.59257000000000     0.09516000000000     0.77667000000000
C      C      0.40743000000000     0.90484000000000     0.22333000000000
O      O      0.97553000000000     0.72299000000000     0.18808000000000
O      O      0.02447000000000     0.27701000000000     0.81192000000000
O      O      0.52447000000000     0.22299000000000     0.81192000000000
O      O      0.47553000000000     0.77701000000000     0.18808000000000
H      H      0.93980000000000     0.83023000000000     0.20364000000000
H      H      0.06020000000000     0.16977000000000     0.79636000000000
H      H      0.56020000000000     0.33023000000000     0.79636000000000
H      H      0.43980000000000     0.66977000000000     0.20364000000000
C      C      0.79127000000000     0.61260000000000     0.27339000000000
C      C      0.20873000000000     0.38740000000000     0.72661000000000
C      C      0.70873000000000     0.11260000000000     0.72661000000000
C      C      0.29127000000000     0.88740000000000     0.27339000000000
H      H      0.75053000000000     0.72308000000000     0.28546000000000
H      H      0.24947000000000     0.27692000000000     0.71454000000000
H      H      0.74947000000000     0.22308000000000     0.71454000000000
H      H      0.25053000000000     0.77692000000000     0.28546000000000
H      H      0.02520000000000     0.39829000000000     0.18036000000000
H      H      0.97480000000000     0.60171000000000     0.81964000000000
H      H      0.47480000000000     0.89829000000000     0.81964000000000
H      H      0.52520000000000     0.10171000000000     0.18036000000000
