data_default
_cell_volume           845.996171
_symmetry_space_group_name_H-M 'P 1'
_symmetry_Int_Tables_number 1
loop_
_symmetry_equiv_pos_site_id
_symmetry_equiv_pos_as_xyz
1 x,y,z
_cell_length_a        12.3410000000
_cell_length_b         8.8790000000
_cell_length_c         8.1970000000
_cell_angle_alpha        90.0000
_cell_angle_beta        70.3710
_cell_angle_gamma        90.0000
_cell_formula_units_Z 1
loop_
_atom_site_label
_atom_site_type_symbol
_atom_site_fract_x
_atom_site_fract_y
_atom_site_fract_z
C1     C      0.19840000000000     0.77717000000000     0.35264000000000
C1     C      0.80160000000000     0.27717000000000     0.14736000000000
C1     C      0.80160000000000     0.22283000000000     0.64736000000000
C1     C      0.19840000000000     0.72283000000000     0.85264000000000
N2     N      0.13363000000000     0.64037000000000     0.35177000000000
N2     N      0.86637000000000     0.14037000000000     0.14823000000000
N2     N      0.86637000000000     0.35963000000000     0.64823000000000
N2     N      0.13363000000000     0.85963000000000     0.85177000000000
O3     O      0.09458000000000     0.62582000000000     0.23849000000000
O3     O      0.90542000000000     0.12582000000000     0.26151000000000
O3     O      0.90542000000000     0.37418000000000     0.76151000000000
O3     O      0.09458000000000     0.87418000000000     0.73849000000000
O4     O      0.12365000000000     0.55495000000000     0.46765000000000
O4     O      0.87635000000000     0.05495000000000     0.03235000000000
O4     O      0.87635000000000     0.44505000000000     0.53235000000000
O4     O      0.12365000000000     0.94505000000000     0.96765000000000
C5     C      0.30250000000000     0.77202000000000     0.38188000000000
C5     C      0.69750000000000     0.27202000000000     0.11812000000000
C5     C      0.69750000000000     0.22798000000000     0.61812000000000
C5     C      0.30250000000000     0.72798000000000     0.88188000000000
N6     N      0.36126000000000     0.63028000000000     0.38308000000000
N6     N      0.63874000000000     0.13028000000000     0.11692000000000
N6     N      0.63874000000000     0.36972000000000     0.61692000000000
N6     N      0.36126000000000     0.86972000000000     0.88308000000000
O7     O      0.40630000000000     0.61556000000000     0.48956000000000
O7     O      0.59370000000000     0.11556000000000     0.01044000000000
O7     O      0.59370000000000     0.38444000000000     0.51044000000000
O7     O      0.40630000000000     0.88444000000000     0.98956000000000
O8     O      0.36179000000000     0.54146000000000     0.27419000000000
O8     O      0.63821000000000     0.04146000000000     0.22581000000000
O8     O      0.63821000000000     0.45854000000000     0.72581000000000
O8     O      0.36179000000000     0.95854000000000     0.77419000000000
C9     C      0.35670000000000     0.90259000000000     0.39984000000000
C9     C      0.64330000000000     0.40259000000000     0.10016000000000
C9     C      0.64330000000000     0.09741000000000     0.60016000000000
C9     C      0.35670000000000     0.59741000000000     0.89984000000000
H10    H      0.43732000000000     0.89723000000000     0.42173000000000
H10    H      0.56268000000000     0.39723000000000     0.07827000000000
H10    H      0.56268000000000     0.10277000000000     0.57827000000000
H10    H      0.43732000000000     0.60277000000000     0.92173000000000
C11    C      0.30690000000000     0.04074000000000     0.38882000000000
C11    C      0.69310000000000     0.54074000000000     0.11118000000000
C11    C      0.69310000000000     0.95926000000000     0.61118000000000
C11    C      0.30690000000000     0.45926000000000     0.88882000000000
Cl12   Cl     0.37607000000000     0.20180000000000     0.41757000000000
Cl12   Cl     0.62393000000000     0.70180000000000     0.08243000000000
Cl12   Cl     0.62393000000000     0.79820000000000     0.58243000000000
Cl12   Cl     0.37607000000000     0.29820000000000     0.91757000000000
C13    C      0.20383000000000     0.04585000000000     0.35617000000000
C13    C      0.79617000000000     0.54585000000000     0.14383000000000
C13    C      0.79617000000000     0.95415000000000     0.64383000000000
C13    C      0.20383000000000     0.45415000000000     0.85617000000000
Cl14   Cl     0.13712000000000     0.21390000000000     0.34609000000000
Cl14   Cl     0.86288000000000     0.71390000000000     0.15391000000000
Cl14   Cl     0.86288000000000     0.78610000000000     0.65391000000000
Cl14   Cl     0.13712000000000     0.28610000000000     0.84609000000000
C15    C      0.15000000000000     0.91293000000000     0.33637000000000
C15    C      0.85000000000000     0.41293000000000     0.16363000000000
C15    C      0.85000000000000     0.08707000000000     0.66363000000000
C15    C      0.15000000000000     0.58707000000000     0.83637000000000
H16    H      0.06966000000000     0.91633000000000     0.31326000000000
H16    H      0.93034000000000     0.41633000000000     0.18674000000000
H16    H      0.93034000000000     0.08367000000000     0.68674000000000
H16    H      0.06966000000000     0.58367000000000     0.81326000000000
