data_default
_cell_volume           851.532429
_symmetry_space_group_name_H-M 'P 1'
_symmetry_Int_Tables_number 1
loop_
_symmetry_equiv_pos_site_id
_symmetry_equiv_pos_as_xyz
1 x,y,z
_cell_length_a         8.8008954011
_cell_length_b         7.7680778881
_cell_length_c        13.0284704155
_cell_angle_alpha        90.0000
_cell_angle_beta       107.0556
_cell_angle_gamma        90.0000
_cell_formula_units_Z 1
loop_
_atom_site_label
_atom_site_type_symbol
_atom_site_fract_x
_atom_site_fract_y
_atom_site_fract_z
C0_0   C      0.84356899381911     0.39286888765701     0.82714611880071
C0_0   C      0.15643100618089     0.89286888765701     0.67285388119929
C0_0   C      0.15643100618089     0.60713111234299     0.17285388119929
C0_0   C      0.84356899381911     0.10713111234299     0.32714611880071
C1_0   C      0.96716950151565     0.39173014390872     0.78164315911858
C1_0   C      0.03283049848435     0.89173014390872     0.71835684088142
C1_0   C      0.03283049848435     0.60826985609128     0.21835684088142
C1_0   C      0.96716950151565     0.10826985609128     0.28164315911858
C3_0   C      0.68767405761652     0.36990879657149     0.76186721796565
C3_0   C      0.31232594238348     0.86990879657149     0.73813278203435
C3_0   C      0.31232594238348     0.63009120342851     0.23813278203435
C3_0   C      0.68767405761652     0.13009120342851     0.26186721796565
H0_0   H      0.86910649752979     0.40218281566891     0.91381403185290
H0_0   H      0.13089350247021     0.90218281566891     0.58618596814710
H0_0   H      0.13089350247021     0.59781718433109     0.08618596814710
H0_0   H      0.86910649752979     0.09781718433109     0.41381403185290
C2_0   C      0.93668045384450     0.37731515216746     0.67029768090542
C2_0   C      0.06331954615550     0.87731515216746     0.82970231909458
C2_0   C      0.06331954615550     0.62268484783254     0.32970231909458
C2_0   C      0.93668045384450     0.12268484783254     0.17029768090542
N0_0   N      0.12905510012351     0.38250773189187     0.85490028311942
N0_0   N      0.87094489987649     0.88250773189187     0.64509971688058
N0_0   N      0.87094489987649     0.61749226810813     0.14509971688058
N0_0   N      0.12905510012351     0.11749226810813     0.35490028311942
C4_0   C      0.65696699269532     0.34901854902526     0.65029164144449
C4_0   C      0.34303300730468     0.84901854902526     0.84970835855551
C4_0   C      0.34303300730468     0.65098145097474     0.34970835855551
C4_0   C      0.65696699269532     0.15098145097474     0.15029164144449
Cl0_0  Cl     0.53790757342934     0.35734304485852     0.82027109659702
Cl0_0  Cl     0.46209242657066     0.85734304485852     0.67972890340298
Cl0_0  Cl     0.46209242657066     0.64265695514148     0.17972890340298
Cl0_0  Cl     0.53790757342934     0.14265695514148     0.32027109659702
C5_0   C      0.78209570517823     0.35744278396372     0.60478835948409
C5_0   C      0.21790429482177     0.85744278396372     0.89521164051591
C5_0   C      0.21790429482177     0.64255721603628     0.39521164051591
C5_0   C      0.78209570517823     0.14255721603628     0.10478835948409
N1_0   N      0.06349475880804     0.39764703294212     0.61987785800491
N1_0   N      0.93650524119196     0.89764703294212     0.88012214199509
N1_0   N      0.93650524119196     0.60235296705788     0.38012214199509
N1_0   N      0.06349475880804     0.10235296705788     0.11987785800491
O0_0   O      0.21471145985280     0.26614229913606     0.83788321926433
O0_0   O      0.78528854014720     0.76614229913606     0.66211678073567
O0_0   O      0.78528854014720     0.73385770086394     0.16211678073567
O0_0   O      0.21471145985280     0.23385770086394     0.33788321926433
O1_0   O      0.16674504787223     0.48522759898941     0.93046740636782
O1_0   O      0.83325495212777     0.98522759898941     0.56953259363218
O1_0   O      0.83325495212777     0.51477240101059     0.06953259363218
O1_0   O      0.16674504787223     0.01477240101059     0.43046740636782
Cl1_0  Cl     0.46882327998470     0.31084531753583     0.56932117519798
Cl1_0  Cl     0.53117672001530     0.81084531753583     0.93067882480202
Cl1_0  Cl     0.53117672001530     0.68915468246417     0.43067882480202
Cl1_0  Cl     0.46882327998470     0.18915468246417     0.06932117519798
H1_0   H      0.75869278552639     0.35110822497201     0.51815175165606
H1_0   H      0.24130721447361     0.85110822497201     0.98184824834394
H1_0   H      0.24130721447361     0.64889177502799     0.48184824834394
H1_0   H      0.75869278552639     0.14889177502799     0.01815175165606
O2_0   O      0.17362327591813     0.49683447538527     0.66371860289398
O2_0   O      0.82637672408187     0.99683447538527     0.83628139710602
O2_0   O      0.82637672408187     0.50316552461473     0.33628139710602
O2_0   O      0.17362327591813     0.00316552461473     0.16371860289398
O3_0   O      0.05068490372857     0.31930556615767     0.53486534835024
O3_0   O      0.94931509627143     0.81930556615767     0.96513465164976
O3_0   O      0.94931509627143     0.68069443384233     0.46513465164976
O3_0   O      0.05068490372857     0.18069443384233     0.03486534835024
