data_default
_cell_volume           840.301827
_symmetry_space_group_name_H-M 'P 1'
_symmetry_Int_Tables_number 1
loop_
_symmetry_equiv_pos_site_id
_symmetry_equiv_pos_as_xyz
1 x,y,z
_cell_length_a         6.6940600000
_cell_length_b        23.3295000000
_cell_length_c         5.3898300000
_cell_angle_alpha        90.0000
_cell_angle_beta        93.3320
_cell_angle_gamma        90.0000
_cell_formula_units_Z 1
loop_
_atom_site_label
_atom_site_type_symbol
_atom_site_fract_x
_atom_site_fract_y
_atom_site_fract_z
C1     C      0.71407000000000     0.15125000000000     0.41238000000000
C1     C      0.28593000000000     0.65125000000000     0.08762000000000
C1     C      0.28593000000000     0.84875000000000     0.58762000000000
C1     C      0.71407000000000     0.34875000000000     0.91238000000000
C2     C      0.63228000000000     0.09916000000000     0.32237000000000
C2     C      0.36772000000000     0.59916000000000     0.17763000000000
C2     C      0.36772000000000     0.90084000000000     0.67763000000000
C2     C      0.63228000000000     0.40084000000000     0.82237000000000
C3     C      0.72575000000000     0.07005000000000     0.13391000000000
C3     C      0.27425000000000     0.57005000000000     0.36609000000000
C3     C      0.27425000000000     0.92995000000000     0.86609000000000
C3     C      0.72575000000000     0.42995000000000     0.63391000000000
C4     C      0.89752000000000     0.09202000000000     0.03535000000000
C4     C      0.10248000000000     0.59202000000000     0.46465000000000
C4     C      0.10248000000000     0.90798000000000     0.96465000000000
C4     C      0.89752000000000     0.40798000000000     0.53535000000000
C5     C      0.98370000000000     0.14216000000000     0.13333000000000
C5     C      0.01630000000000     0.64216000000000     0.36667000000000
C5     C      0.01630000000000     0.85784000000000     0.86667000000000
C5     C      0.98370000000000     0.35784000000000     0.63333000000000
C6     C      0.89338000000000     0.17120000000000     0.32248000000000
C6     C      0.10662000000000     0.67120000000000     0.17752000000000
C6     C      0.10662000000000     0.82880000000000     0.67752000000000
C6     C      0.89338000000000     0.32880000000000     0.82248000000000
N1     N      0.60961000000000     0.18694000000000     0.59278000000000
N1     N      0.39039000000000     0.68694000000000     0.90722000000000
N1     N      0.39039000000000     0.81306000000000     0.40722000000000
N1     N      0.60961000000000     0.31306000000000     0.09278000000000
O1     O      0.43419000000000     0.19786000000000     0.54008000000000
O1     O      0.56581000000000     0.69786000000000     0.95992000000000
O1     O      0.56581000000000     0.80214000000000     0.45992000000000
O1     O      0.43419000000000     0.30214000000000     0.04008000000000
O2     O      0.71174000000000     0.20862000000000     0.76229000000000
O2     O      0.28826000000000     0.70862000000000     0.73771000000000
O2     O      0.28826000000000     0.79138000000000     0.23771000000000
O2     O      0.71174000000000     0.29138000000000     0.26229000000000
H1     H      0.66323000000000     0.03002000000000     0.06026000000000
H1     H      0.33677000000000     0.53002000000000     0.43974000000000
H1     H      0.33677000000000     0.96998000000000     0.93974000000000
H1     H      0.66323000000000     0.46998000000000     0.56026000000000
H2     H      0.96025000000000     0.21098000000000     0.39315000000000
H2     H      0.03975000000000     0.71098000000000     0.10685000000000
H2     H      0.03975000000000     0.78902000000000     0.60685000000000
H2     H      0.96025000000000     0.28902000000000     0.89315000000000
N2     N      0.45192000000000     0.07364000000000     0.42770000000000
N2     N      0.54808000000000     0.57364000000000     0.07230000000000
N2     N      0.54808000000000     0.92636000000000     0.57230000000000
N2     N      0.45192000000000     0.42636000000000     0.92770000000000
O3     O      0.45298000000000     0.07142000000000     0.65378000000000
O3     O      0.54702000000000     0.57142000000000     0.84622000000000
O3     O      0.54702000000000     0.92858000000000     0.34622000000000
O3     O      0.45298000000000     0.42858000000000     0.15378000000000
O4     O      0.34016000000000     0.04576000000000     0.28789000000000
O4     O      0.65984000000000     0.54576000000000     0.21211000000000
O4     O      0.65984000000000     0.95424000000000     0.71211000000000
O4     O      0.34016000000000     0.45424000000000     0.78789000000000
Cl1    Cl     0.19536000000000     0.17133000000000     0.01398000000000
Cl1    Cl     0.80464000000000     0.67133000000000     0.48602000000000
Cl1    Cl     0.80464000000000     0.82867000000000     0.98602000000000
Cl1    Cl     0.19536000000000     0.32867000000000     0.51398000000000
Cl2    Cl     0.99745000000000     0.05704000000000     0.78800000000000
Cl2    Cl     0.00255000000000     0.55704000000000     0.71200000000000
Cl2    Cl     0.00255000000000     0.94296000000000     0.21200000000000
Cl2    Cl     0.99745000000000     0.44296000000000     0.28800000000000
