data_default
_cell_volume           839.387758
_symmetry_space_group_name_H-M 'P 1'
_symmetry_Int_Tables_number 1
loop_
_symmetry_equiv_pos_site_id
_symmetry_equiv_pos_as_xyz
1 x,y,z
_cell_length_a        13.9057000000
_cell_length_b         8.8828000000
_cell_length_c         8.2170000000
_cell_angle_alpha        90.0000
_cell_angle_beta       124.2080
_cell_angle_gamma        90.0000
_cell_formula_units_Z 1
loop_
_atom_site_label
_atom_site_type_symbol
_atom_site_fract_x
_atom_site_fract_y
_atom_site_fract_z
Cl1    Cl     0.11816000000000     0.02659000000000     0.46582000000000
Cl1    Cl     0.61816000000000     0.52659000000000     0.46582000000000
Cl1    Cl     0.88184000000000     0.02659000000000     0.03418000000000
Cl1    Cl     0.38184000000000     0.52659000000000     0.03418000000000
Cl1    Cl     0.88184000000000     0.97341000000000     0.53418000000000
Cl1    Cl     0.38184000000000     0.47341000000000     0.53418000000000
Cl1    Cl     0.11816000000000     0.97341000000000     0.96582000000000
Cl1    Cl     0.61816000000000     0.47341000000000     0.96582000000000
O1     O      0.11727000000000     0.69863000000000     0.33303000000000
O1     O      0.61727000000000     0.19863000000000     0.33303000000000
O1     O      0.88273000000000     0.69863000000000     0.16697000000000
O1     O      0.38273000000000     0.19863000000000     0.16697000000000
O1     O      0.88273000000000     0.30137000000000     0.66697000000000
O1     O      0.38273000000000     0.80137000000000     0.66697000000000
O1     O      0.11727000000000     0.30137000000000     0.83303000000000
O1     O      0.61727000000000     0.80137000000000     0.83303000000000
O2     O      0.16352000000000     0.60974000000000     0.62081000000000
O2     O      0.66352000000000     0.10974000000000     0.62081000000000
O2     O      0.83648000000000     0.60974000000000     0.87919000000000
O2     O      0.33648000000000     0.10974000000000     0.87919000000000
O2     O      0.83648000000000     0.39026000000000     0.37919000000000
O2     O      0.33648000000000     0.89026000000000     0.37919000000000
O2     O      0.16352000000000     0.39026000000000     0.12081000000000
O2     O      0.66352000000000     0.89026000000000     0.12081000000000
N1     N      0.11457000000000     0.60216000000000     0.43975000000000
N1     N      0.61457000000000     0.10216000000000     0.43975000000000
N1     N      0.88543000000000     0.60216000000000     0.06025000000000
N1     N      0.38543000000000     0.10216000000000     0.06025000000000
N1     N      0.88543000000000     0.39784000000000     0.56025000000000
N1     N      0.38543000000000     0.89784000000000     0.56025000000000
N1     N      0.11457000000000     0.39784000000000     0.93975000000000
N1     N      0.61457000000000     0.89784000000000     0.93975000000000
C1     C      0.05146000000000     0.46326000000000     0.34380000000000
C1     C      0.55146000000000     0.96326000000000     0.34380000000000
C1     C      0.94854000000000     0.46326000000000     0.15620000000000
C1     C      0.44854000000000     0.96326000000000     0.15620000000000
C1     C      0.94854000000000     0.53674000000000     0.65620000000000
C1     C      0.44854000000000     0.03674000000000     0.65620000000000
C1     C      0.05146000000000     0.53674000000000     0.84380000000000
C1     C      0.55146000000000     0.03674000000000     0.84380000000000
C3     C      0.10354000000000     0.32815000000000     0.43732000000000
C3     C      0.60354000000000     0.82815000000000     0.43732000000000
C3     C      0.89646000000000     0.32815000000000     0.06268000000000
C3     C      0.39646000000000     0.82815000000000     0.06268000000000
C3     C      0.89646000000000     0.67185000000000     0.56268000000000
C3     C      0.39646000000000     0.17185000000000     0.56268000000000
C3     C      0.10354000000000     0.67185000000000     0.93732000000000
C3     C      0.60354000000000     0.17185000000000     0.93732000000000
C4     C      0.05160000000000     0.19184000000000     0.34507000000000
C4     C      0.55160000000000     0.69184000000000     0.34507000000000
C4     C      0.94840000000000     0.19184000000000     0.15493000000000
C4     C      0.44840000000000     0.69184000000000     0.15493000000000
C4     C      0.94840000000000     0.80816000000000     0.65493000000000
C4     C      0.44840000000000     0.30816000000000     0.65493000000000
C4     C      0.05160000000000     0.80816000000000     0.84507000000000
C4     C      0.55160000000000     0.30816000000000     0.84507000000000
H1     H      0.18368000000000     0.32997000000000     0.58228000000000
H1     H      0.68368000000000     0.82997000000000     0.58228000000000
H1     H      0.81632000000000     0.32997000000000     0.91772000000000
H1     H      0.31632000000000     0.82997000000000     0.91772000000000
H1     H      0.81632000000000     0.67003000000000     0.41772000000000
H1     H      0.31632000000000     0.17003000000000     0.41772000000000
H1     H      0.18368000000000     0.67003000000000     0.08228000000000
H1     H      0.68368000000000     0.17003000000000     0.08228000000000
