data_default
_cell_volume           863.474610
_symmetry_space_group_name_H-M 'P 1'
_symmetry_Int_Tables_number 1
loop_
_symmetry_equiv_pos_site_id
_symmetry_equiv_pos_as_xyz
1 x,y,z
_cell_length_a         6.5540000000
_cell_length_b        23.2070000000
_cell_length_c         5.6830000000
_cell_angle_alpha        90.0000
_cell_angle_beta        87.3820
_cell_angle_gamma        90.0000
_cell_formula_units_Z 1
loop_
_atom_site_label
_atom_site_type_symbol
_atom_site_fract_x
_atom_site_fract_y
_atom_site_fract_z
C1     C      0.26257000000000     0.84801000000000     0.85581000000000
C1     C      0.73743000000000     0.34801000000000     0.64419000000000
C1     C      0.73743000000000     0.15199000000000     0.14419000000000
C1     C      0.26257000000000     0.65199000000000     0.35581000000000
N2     N      0.36408000000000     0.81390000000000     0.03093000000000
N2     N      0.63592000000000     0.31390000000000     0.46907000000000
N2     N      0.63592000000000     0.18610000000000     0.96907000000000
N2     N      0.36408000000000     0.68610000000000     0.53093000000000
O3     O      0.54351000000000     0.80813000000000     0.00069000000000
O3     O      0.45649000000000     0.30813000000000     0.49931000000000
O3     O      0.45649000000000     0.19187000000000     0.99931000000000
O3     O      0.54351000000000     0.69187000000000     0.50069000000000
O4     O      0.26065000000000     0.79346000000000     0.18677000000000
O4     O      0.73935000000000     0.29346000000000     0.31323000000000
O4     O      0.73935000000000     0.20654000000000     0.81323000000000
O4     O      0.26065000000000     0.70654000000000     0.68677000000000
C5     C      0.34634000000000     0.89880000000000     0.76684000000000
C5     C      0.65366000000000     0.39880000000000     0.73316000000000
C5     C      0.65366000000000     0.10120000000000     0.23316000000000
C5     C      0.34634000000000     0.60120000000000     0.26684000000000
N6     N      0.51516000000000     0.92733000000000     0.87736000000000
N6     N      0.48484000000000     0.42733000000000     0.62264000000000
N6     N      0.48484000000000     0.07267000000000     0.12264000000000
N6     N      0.51516000000000     0.57267000000000     0.37736000000000
O7     O      0.50936000000000     0.92751000000000     0.08680000000000
O7     O      0.49064000000000     0.42751000000000     0.41320000000000
O7     O      0.49064000000000     0.07249000000000     0.91320000000000
O7     O      0.50936000000000     0.57249000000000     0.58680000000000
O8     O      0.64175000000000     0.94985000000000     0.75206000000000
O8     O      0.35825000000000     0.44985000000000     0.74794000000000
O8     O      0.35825000000000     0.05015000000000     0.24794000000000
O8     O      0.64175000000000     0.55015000000000     0.25206000000000
C9     C      0.25879000000000     0.92651000000000     0.58389000000000
C9     C      0.74121000000000     0.42651000000000     0.91611000000000
C9     C      0.74121000000000     0.07349000000000     0.41611000000000
C9     C      0.25879000000000     0.57349000000000     0.08389000000000
H10    H      0.32460000000000     0.96567000000000     0.51686000000000
H10    H      0.67540000000000     0.46567000000000     0.98314000000000
H10    H      0.67540000000000     0.03433000000000     0.48314000000000
H10    H      0.32460000000000     0.53433000000000     0.01686000000000
C11    C      0.08420000000000     0.90409000000000     0.48863000000000
C11    C      0.91580000000000     0.40409000000000     0.01137000000000
C11    C      0.91580000000000     0.09591000000000     0.51137000000000
C11    C      0.08420000000000     0.59591000000000     0.98863000000000
Cl12   Cl     0.98240000000000     0.93915000000000     0.25415000000000
Cl12   Cl     0.01760000000000     0.43915000000000     0.24585000000000
Cl12   Cl     0.01760000000000     0.06085000000000     0.74585000000000
Cl12   Cl     0.98240000000000     0.56085000000000     0.75415000000000
C13    C      0.99792000000000     0.85409000000000     0.58146000000000
C13    C      0.00208000000000     0.35409000000000     0.91854000000000
C13    C      0.00208000000000     0.14591000000000     0.41854000000000
C13    C      0.99792000000000     0.64591000000000     0.08146000000000
Cl14   Cl     0.78524000000000     0.82328000000000     0.46738000000000
Cl14   Cl     0.21476000000000     0.32328000000000     0.03262000000000
Cl14   Cl     0.21476000000000     0.17672000000000     0.53262000000000
Cl14   Cl     0.78524000000000     0.67672000000000     0.96738000000000
C15    C      0.08780000000000     0.82620000000000     0.76658000000000
C15    C      0.91220000000000     0.32620000000000     0.73342000000000
C15    C      0.91220000000000     0.17380000000000     0.23342000000000
C15    C      0.08780000000000     0.67380000000000     0.26658000000000
H16    H      0.02018000000000     0.78793000000000     0.84038000000000
H16    H      0.97982000000000     0.28793000000000     0.65962000000000
H16    H      0.97982000000000     0.21207000000000     0.15962000000000
H16    H      0.02018000000000     0.71207000000000     0.34038000000000
