data_default
_cell_volume           846.178436
_symmetry_space_group_name_H-M 'P 1'
_symmetry_Int_Tables_number 1
loop_
_symmetry_equiv_pos_site_id
_symmetry_equiv_pos_as_xyz
1 x,y,z
_cell_length_a        11.6534000000
_cell_length_b         8.9387000000
_cell_length_c         8.1360000000
_cell_angle_alpha        90.0000
_cell_angle_beta        93.1960
_cell_angle_gamma        90.0000
_cell_formula_units_Z 1
loop_
_atom_site_label
_atom_site_type_symbol
_atom_site_fract_x
_atom_site_fract_y
_atom_site_fract_z
Cl1    Cl     0.38104000000000     0.47911000000000     0.33966000000000
Cl1    Cl     0.88104000000000     0.97911000000000     0.33966000000000
Cl1    Cl     0.61896000000000     0.47911000000000     0.16034000000000
Cl1    Cl     0.11896000000000     0.97911000000000     0.16034000000000
Cl1    Cl     0.61896000000000     0.52089000000000     0.66034000000000
Cl1    Cl     0.11896000000000     0.02089000000000     0.66034000000000
Cl1    Cl     0.38104000000000     0.52089000000000     0.83966000000000
Cl1    Cl     0.88104000000000     0.02089000000000     0.83966000000000
O1     O      0.38474000000000     0.81130000000000     0.20687000000000
O1     O      0.88474000000000     0.31130000000000     0.20687000000000
O1     O      0.61526000000000     0.81130000000000     0.29313000000000
O1     O      0.11526000000000     0.31130000000000     0.29313000000000
O1     O      0.61526000000000     0.18870000000000     0.79313000000000
O1     O      0.11526000000000     0.68870000000000     0.79313000000000
O1     O      0.38474000000000     0.18870000000000     0.70687000000000
O1     O      0.88474000000000     0.68870000000000     0.70687000000000
O2     O      0.33376000000000     0.89970000000000     0.44681000000000
O2     O      0.83376000000000     0.39970000000000     0.44681000000000
O2     O      0.66624000000000     0.89970000000000     0.05319000000000
O2     O      0.16624000000000     0.39970000000000     0.05319000000000
O2     O      0.66624000000000     0.10030000000000     0.55319000000000
O2     O      0.16624000000000     0.60030000000000     0.55319000000000
O2     O      0.33376000000000     0.10030000000000     0.94681000000000
O2     O      0.83376000000000     0.60030000000000     0.94681000000000
N1     N      0.38502000000000     0.90714000000000     0.31733000000000
N1     N      0.88502000000000     0.40714000000000     0.31733000000000
N1     N      0.61498000000000     0.90714000000000     0.18267000000000
N1     N      0.11498000000000     0.40714000000000     0.18267000000000
N1     N      0.61498000000000     0.09286000000000     0.68267000000000
N1     N      0.11498000000000     0.59286000000000     0.68267000000000
N1     N      0.38502000000000     0.09286000000000     0.81733000000000
N1     N      0.88502000000000     0.59286000000000     0.81733000000000
C1     C      0.44818000000000     0.04522000000000     0.28885000000000
C1     C      0.94818000000000     0.54522000000000     0.28885000000000
C1     C      0.55182000000000     0.04522000000000     0.21115000000000
C1     C      0.05182000000000     0.54522000000000     0.21115000000000
C1     C      0.55182000000000     0.95478000000000     0.71115000000000
C1     C      0.05182000000000     0.45478000000000     0.71115000000000
C1     C      0.44818000000000     0.95478000000000     0.78885000000000
C1     C      0.94818000000000     0.45478000000000     0.78885000000000
C3     C      0.39577000000000     0.17944000000000     0.32678000000000
C3     C      0.89577000000000     0.67944000000000     0.32678000000000
C3     C      0.60423000000000     0.17944000000000     0.17322000000000
C3     C      0.10423000000000     0.67944000000000     0.17322000000000
C3     C      0.60423000000000     0.82056000000000     0.67322000000000
C3     C      0.10423000000000     0.32056000000000     0.67322000000000
C3     C      0.39577000000000     0.82056000000000     0.82678000000000
C3     C      0.89577000000000     0.32056000000000     0.82678000000000
C4     C      0.44804000000000     0.31492000000000     0.28998000000000
C4     C      0.94804000000000     0.81492000000000     0.28998000000000
C4     C      0.55196000000000     0.31492000000000     0.21002000000000
C4     C      0.05196000000000     0.81492000000000     0.21002000000000
C4     C      0.55196000000000     0.68508000000000     0.71002000000000
C4     C      0.05196000000000     0.18508000000000     0.71002000000000
C4     C      0.44804000000000     0.68508000000000     0.78998000000000
C4     C      0.94804000000000     0.18508000000000     0.78998000000000
H1     H      0.31510000000000     0.17762000000000     0.38620000000000
H1     H      0.81510000000000     0.67762000000000     0.38620000000000
H1     H      0.68490000000000     0.17762000000000     0.11380000000000
H1     H      0.18490000000000     0.67762000000000     0.11380000000000
H1     H      0.68490000000000     0.82238000000000     0.61380000000000
H1     H      0.18490000000000     0.32238000000000     0.61380000000000
H1     H      0.31510000000000     0.82238000000000     0.88620000000000
H1     H      0.81510000000000     0.32238000000000     0.88620000000000
