data_default
_cell_volume           420.867812
_symmetry_space_group_name_H-M 'P 1'
_symmetry_Int_Tables_number 1
loop_
_symmetry_equiv_pos_site_id
_symmetry_equiv_pos_as_xyz
1 x,y,z
_cell_length_a        23.4266000000
_cell_length_b        10.2237000000
_cell_length_c        17.6475000000
_cell_angle_alpha        21.0400
_cell_angle_beta        16.1041
_cell_angle_gamma        26.0686
_cell_formula_units_Z 1
loop_
_atom_site_label
_atom_site_type_symbol
_atom_site_fract_x
_atom_site_fract_y
_atom_site_fract_z
C1     C      0.10565000000000     0.23655000000000     0.39211000000000
C1     C      0.89435000000000     0.76345000000000     0.60789000000000
C2     C      0.89336000000000     0.18643000000000     0.67820000000000
C2     C      0.10664000000000     0.81357000000000     0.32180000000000
C3     C      0.80148000000000     0.30534000000000     0.66358000000000
C3     C      0.19852000000000     0.69466000000000     0.33642000000000
C4     C      0.91838000000000     0.46697000000000     0.37061000000000
C4     C      0.08162000000000     0.53303000000000     0.62939000000000
C5     C      0.12906000000000     0.51044000000000     0.08920000000000
C5     C      0.87094000000000     0.48956000000000     0.91080000000000
C6     C      0.22088000000000     0.40127000000000     0.09880000000000
C6     C      0.77912000000000     0.59873000000000     0.90120000000000
N1     N      0.21036000000000     0.12605000000000     0.39028000000000
N1     N      0.78964000000000     0.87395000000000     0.60972000000000
O1     O      0.39628000000000     0.07570000000000     0.17808000000000
O1     O      0.60372000000000     0.92430000000000     0.82192000000000
O2     O      0.11310000000000     0.16427000000000     0.55227000000000
O2     O      0.88690000000000     0.83573000000000     0.44773000000000
H1     H      0.63724000000000     0.26894000000000     0.88359000000000
H1     H      0.36276000000000     0.73106000000000     0.11641000000000
H2     H      0.38492000000000     0.44645000000000     0.87283000000000
H2     H      0.61508000000000     0.55355000000000     0.12717000000000
N2     N      0.76254000000000     0.00842000000000     0.99877000000000
N2     N      0.23746000000000     0.99158000000000     0.00123000000000
O3     O      0.79441000000000     0.68459000000000     0.14381000000000
O3     O      0.20559000000000     0.31541000000000     0.85619000000000
O4     O      0.61273000000000     0.18036000000000     0.11944000000000
O4     O      0.38727000000000     0.81964000000000     0.88056000000000
Cl1    Cl     0.28162000000000     0.69361000000000     0.72554000000000
Cl1    Cl     0.71838000000000     0.30639000000000     0.27446000000000
Cl2    Cl     0.79939000000000     0.61028000000000     0.36209000000000
Cl2    Cl     0.20061000000000     0.38972000000000     0.63791000000000
