data_dellavalle.XVII.001
# Della Valle's submission for compound XVII, choice 1

# Compound  XVII
# Choice    1
# Energy    -390165.2905 kJ/mol
# Filename  01941/C0194104448/C0194104448.min

_symmetry_cell_setting               Orthorhombic
_symmetry_space_group_name_H-M       'P 21 21 21'
_symmetry_Int_Tables_number                 19

loop_
_symmetry_equiv_pos_site_id
_symmetry_equiv_pos_as_xyz
   1 x,y,z
   2 1/2-x,-y,1/2+z
   3 1/2+x,1/2-y,-z
   4 -x,1/2+y,1/2-z

_cell_length_a         3.72740
_cell_length_b         6.35890
_cell_length_c        23.91210
_cell_angle_alpha           90
_cell_angle_beta            90
_cell_angle_gamma           90
_cell_volume           566.769

loop_
_atom_site_label
_atom_site_type_symbol
_atom_site_fract_x
_atom_site_fract_y
_atom_site_fract_z
Cl15 Cl -0.21201  0.35626  0.04349
Cl16 Cl -0.28375  0.28106  0.16211
O11  O   0.30150  1.12221  0.09219
O12  O   0.65923  0.82688  0.21623
O13  O   0.71704  0.91136  0.06725
O14  O   0.25649  1.04210  0.20599
N9   N   0.46579  0.96579  0.08995
N10  N   0.40457  0.89070  0.19781
C1   C  -0.00490  0.52563  0.08745
C2   C  -0.02951  0.48923  0.14435
C3   C   0.18376  0.69209  0.06966
C4   C   0.12995  0.61817  0.18085
C5   C   0.31158  0.81540  0.10846
C6   C   0.29297  0.77681  0.16050
H7   H   0.14368  0.59293  0.21987
H8   H   0.21524  0.72090  0.02985


