data_default
_cell_volume           418.298443
_symmetry_space_group_name_H-M 'P 1'
_symmetry_Int_Tables_number 1
loop_
_symmetry_equiv_pos_site_id
_symmetry_equiv_pos_as_xyz
1 x,y,z
_cell_length_a         7.2970000000
_cell_length_b         8.1660000000
_cell_length_c         9.0130000000
_cell_angle_alpha       100.5820
_cell_angle_beta        94.4910
_cell_angle_gamma       125.4760
_cell_formula_units_Z 1
loop_
_atom_site_label
_atom_site_type_symbol
_atom_site_fract_x
_atom_site_fract_y
_atom_site_fract_z
C1     C      0.41760000000000     0.19300000000000     0.99240000000000
C1     C      0.58240000000000     0.80700000000000     0.00760000000000
C2     C      0.29770000000000     0.07180000000000     0.84040000000000
C2     C      0.70230000000000     0.92820000000000     0.15960000000000
C3     C      0.35320000000000     0.10270000000000     0.11440000000000
C3     C      0.64680000000000     0.89730000000000     0.88560000000000
C4     C      0.16690000000000     0.88880000000000     0.08300000000000
C4     C      0.83310000000000     0.11120000000000     0.91700000000000
C5     C      0.11060000000000     0.85980000000000     0.80920000000000
C5     C      0.88940000000000     0.14020000000000     0.19080000000000
C6     C      0.04640000000000     0.76850000000000     0.92990000000000
C6     C      0.95360000000000     0.23150000000000     0.07010000000000
N1     N      0.96140000000000     0.72750000000000     0.65110000000000
N1     N      0.03860000000000     0.27250000000000     0.34890000000000
N2     N      0.38940000000000     0.17340000000000     0.71580000000000
N2     N      0.61060000000000     0.82660000000000     0.28420000000000
O1     O      0.91320000000000     0.81010000000000     0.57090000000000
O1     O      0.08680000000000     0.18990000000000     0.42910000000000
O2     O      0.89080000000000     0.54370000000000     0.61630000000000
O2     O      0.10920000000000     0.45630000000000     0.38370000000000
O3     O      0.40250000000000     0.07120000000000     0.60430000000000
O3     O      0.59750000000000     0.92880000000000     0.39570000000000
O4     O      0.45390000000000     0.35470000000000     0.73830000000000
O4     O      0.54610000000000     0.64530000000000     0.26170000000000
CL1    Cl     0.50730000000000     0.25760000000000     0.30270000000000
CL1    Cl     0.49270000000000     0.74240000000000     0.69730000000000
CL2    Cl     0.08150000000000     0.77060000000000     0.23100000000000
CL2    Cl     0.91850000000000     0.22940000000000     0.76900000000000
H5     H      0.90050000000000     0.60350000000000     0.90400000000000
H5     H      0.09950000000000     0.39650000000000     0.09600000000000
H6     H      0.56270000000000     0.35770000000000     0.01520000000000
H6     H      0.43730000000000     0.64230000000000     0.98480000000000
