data_default
_cell_volume           428.148646
_symmetry_space_group_name_H-M 'P 1'
_symmetry_Int_Tables_number 1
loop_
_symmetry_equiv_pos_site_id
_symmetry_equiv_pos_as_xyz
1 x,y,z
_cell_length_a         3.7680000000
_cell_length_b         6.8340000000
_cell_length_c        19.5780000000
_cell_angle_alpha        82.4770
_cell_angle_beta       116.6050
_cell_angle_gamma        78.7360
_cell_formula_units_Z 1
loop_
_atom_site_label
_atom_site_type_symbol
_atom_site_fract_x
_atom_site_fract_y
_atom_site_fract_z
Cl1    Cl     0.50490000000000     0.20450000000000     0.42550000000000
Cl1    Cl     0.49510000000000     0.79550000000000     0.57450000000000
C2     C      0.82790000000000     0.17180000000000     0.17390000000000
C2     C      0.17210000000000     0.82820000000000     0.82610000000000
C3     C      0.81760000000000     0.36180000000000     0.19320000000000
C3     C      0.18240000000000     0.63820000000000     0.80680000000000
C4     C      0.02450000000000     0.37610000000000     0.26900000000000
C4     C      0.97550000000000     0.62390000000000     0.73100000000000
C5     C      0.24360000000000     0.19540000000000     0.32730000000000
C5     C      0.75640000000000     0.80460000000000     0.67270000000000
C6     C      0.26420000000000     0.00710000000000     0.31070000000000
C6     C      0.73580000000000     0.99290000000000     0.68930000000000
C7     C      0.05240000000000     0.99100000000000     0.23290000000000
C7     C      0.94760000000000     0.00900000000000     0.76710000000000
N8     N      0.57810000000000     0.15680000000000     0.09190000000000
N8     N      0.42190000000000     0.84320000000000     0.90810000000000
N9     N      0.60240000000000     0.55490000000000     0.12950000000000
N9     N      0.39760000000000     0.44510000000000     0.87050000000000
O10    O      0.74420000000000     0.03130000000000     0.06980000000000
O10    O      0.25580000000000     0.96870000000000     0.93020000000000
O11    O      0.22340000000000     0.27040000000000     0.05560000000000
O11    O      0.77660000000000     0.72960000000000     0.94440000000000
O12    O      0.66490000000000     0.56330000000000     0.07400000000000
O12    O      0.33510000000000     0.43670000000000     0.92600000000000
O13    O      0.39440000000000     0.69470000000000     0.14000000000000
O13    O      0.60560000000000     0.30530000000000     0.86000000000000
H14    H      0.01360000000000     0.52480000000000     0.28280000000000
H14    H      0.98640000000000     0.47520000000000     0.71720000000000
H15    H      0.06450000000000     0.84250000000000     0.21890000000000
H15    H      0.93550000000000     0.15750000000000     0.78110000000000
Cl16   Cl     0.55490000000000     0.78560000000000     0.38730000000000
Cl16   Cl     0.44510000000000     0.21440000000000     0.61270000000000
