data_default
_cell_volume           859.767191
_symmetry_space_group_name_H-M 'P 1'
_symmetry_Int_Tables_number 1
loop_
_symmetry_equiv_pos_site_id
_symmetry_equiv_pos_as_xyz
1 x,y,z
_cell_length_a        12.6627000000
_cell_length_b         5.8573000000
_cell_length_c        11.6656000000
_cell_angle_alpha        90.0000
_cell_angle_beta        96.4410
_cell_angle_gamma        90.0000
_cell_formula_units_Z 1
loop_
_atom_site_label
_atom_site_type_symbol
_atom_site_fract_x
_atom_site_fract_y
_atom_site_fract_z
C1     C      0.14450100000000     0.49139600000000     0.61858700000000
C1     C      0.85549900000000     0.99139600000000     0.88141300000000
C1     C      0.85549900000000     0.50860400000000     0.38141300000000
C1     C      0.14450100000000     0.00860400000000     0.11858700000000
C2     C      0.20651300000000     0.65135300000000     0.68179100000000
C2     C      0.79348700000000     0.15135300000000     0.81820900000000
C2     C      0.79348700000000     0.34864700000000     0.31820900000000
C2     C      0.20651300000000     0.84864700000000     0.18179100000000
C3     C      0.31490300000000     0.66302400000000     0.67334800000000
C3     C      0.68509700000000     0.16302400000000     0.82665200000000
C3     C      0.68509700000000     0.33697600000000     0.32665200000000
C3     C      0.31490300000000     0.83697600000000     0.17334800000000
C4     C      0.36100000000000     0.51800900000000     0.60011500000000
C4     C      0.63900000000000     0.01800900000000     0.89988500000000
C4     C      0.63900000000000     0.48199100000000     0.39988500000000
C4     C      0.36100000000000     0.98199100000000     0.10011500000000
C5     C      0.29914800000000     0.35698000000000     0.53580000000000
C5     C      0.70085200000000     0.85698000000000     0.96420000000000
C5     C      0.70085200000000     0.64302000000000     0.46420000000000
C5     C      0.29914800000000     0.14302000000000     0.03580000000000
C6     C      0.19021400000000     0.34299200000000     0.54542100000000
C6     C      0.80978600000000     0.84299200000000     0.95457900000000
C6     C      0.80978600000000     0.65700800000000     0.45457900000000
C6     C      0.19021400000000     0.15700800000000     0.04542100000000
N1     N      0.15256600000000     0.81429700000000     0.75128800000000
N1     N      0.84743400000000     0.31429700000000     0.74871200000000
N1     N      0.84743400000000     0.18570300000000     0.24871200000000
N1     N      0.15256600000000     0.68570300000000     0.25128800000000
N2     N      0.38648700000000     0.81771600000000     0.74478300000000
N2     N      0.61351300000000     0.31771600000000     0.75521700000000
N2     N      0.61351300000000     0.18228400000000     0.25521700000000
N2     N      0.38648700000000     0.68228400000000     0.24478300000000
O1     O      0.18815800000000     0.00612000000000     0.75854500000000
O1     O      0.81184200000000     0.50612000000000     0.74145500000000
O1     O      0.81184200000000     0.99388000000000     0.24145500000000
O1     O      0.18815800000000     0.49388000000000     0.25854500000000
O2     O      0.07507540000000     0.74529600000000     0.79274300000000
O2     O      0.92492460000000     0.24529600000000     0.70725700000000
O2     O      0.92492460000000     0.25470400000000     0.20725700000000
O2     O      0.07507540000000     0.75470400000000     0.29274300000000
O3     O      0.44469300000000     0.93558600000000     0.69443500000000
O3     O      0.55530700000000     0.43558600000000     0.80556500000000
O3     O      0.55530700000000     0.06441400000000     0.30556500000000
O3     O      0.44469300000000     0.56441400000000     0.19443500000000
O4     O      0.38350200000000     0.80715500000000     0.84783600000000
O4     O      0.61649800000000     0.30715500000000     0.65216400000000
O4     O      0.61649800000000     0.19284500000000     0.15216400000000
O4     O      0.38350200000000     0.69284500000000     0.34783600000000
H1     H      0.06009900000000     0.48444000000000     0.62619800000000
H1     H      0.93990100000000     0.98444000000000     0.87380200000000
H1     H      0.93990100000000     0.51556000000000     0.37380200000000
H1     H      0.06009900000000     0.01556000000000     0.12619800000000
H2     H      0.44549900000000     0.52922500000000     0.59358100000000
H2     H      0.55450100000000     0.02922500000000     0.90641900000000
H2     H      0.55450100000000     0.47077500000000     0.40641900000000
H2     H      0.44549900000000     0.97077500000000     0.09358100000000
CL1    Cl     0.11086300000000     0.14684200000000     0.46759400000000
CL1    Cl     0.88913700000000     0.64684200000000     0.03240600000000
CL1    Cl     0.88913700000000     0.85315800000000     0.53240600000000
CL1    Cl     0.11086300000000     0.35315800000000     0.96759400000000
CL2    Cl     0.35907900000000     0.17824300000000     0.44607800000000
CL2    Cl     0.64092100000000     0.67824300000000     0.05392200000000
CL2    Cl     0.64092100000000     0.82175700000000     0.55392200000000
CL2    Cl     0.35907900000000     0.32175700000000     0.94607800000000
