data_default
_cell_volume           843.015325
_symmetry_space_group_name_H-M 'P 1'
_symmetry_Int_Tables_number 1
loop_
_symmetry_equiv_pos_site_id
_symmetry_equiv_pos_as_xyz
1 x,y,z
_cell_length_a        11.6063000000
_cell_length_b         8.9450000000
_cell_length_c         8.1201000000
_cell_angle_alpha        90.0000
_cell_angle_beta        90.0260
_cell_angle_gamma        90.0000
_cell_formula_units_Z 1
loop_
_atom_site_label
_atom_site_type_symbol
_atom_site_fract_x
_atom_site_fract_y
_atom_site_fract_z
Cl12   Cl     0.38045000000000     0.45086000000000     0.15096000000000
Cl12   Cl     0.88045000000000     0.95086000000000     0.15096000000000
Cl12   Cl     0.61955000000000     0.54914000000000     0.84904000000000
Cl12   Cl     0.11955000000000     0.04914000000000     0.84904000000000
Cl12   Cl     0.61955000000000     0.45086000000000     0.34904000000000
Cl12   Cl     0.11955000000000     0.95086000000000     0.34904000000000
Cl12   Cl     0.38045000000000     0.54914000000000     0.65096000000000
Cl12   Cl     0.88045000000000     0.04914000000000     0.65096000000000
O3     O      0.38163000000000     0.79406000000000     0.28758000000000
O3     O      0.88163000000000     0.29406000000000     0.28758000000000
O3     O      0.61837000000000     0.20594000000000     0.71242000000000
O3     O      0.11837000000000     0.70594000000000     0.71242000000000
O3     O      0.61837000000000     0.79406000000000     0.21242000000000
O3     O      0.11837000000000     0.29406000000000     0.21242000000000
O3     O      0.38163000000000     0.20594000000000     0.78758000000000
O3     O      0.88163000000000     0.70594000000000     0.78758000000000
O4     O      0.33922000000000     0.87081000000000     0.04776000000000
O4     O      0.83922000000000     0.37081000000000     0.04776000000000
O4     O      0.66078000000000     0.12919000000000     0.95224000000000
O4     O      0.16078000000000     0.62919000000000     0.95224000000000
O4     O      0.66078000000000     0.87081000000000     0.45224000000000
O4     O      0.16078000000000     0.37081000000000     0.45224000000000
O4     O      0.33922000000000     0.12919000000000     0.54776000000000
O4     O      0.83922000000000     0.62919000000000     0.54776000000000
N2     N      0.38447000000000     0.88268000000000     0.17849000000000
N2     N      0.88447000000000     0.38268000000000     0.17849000000000
N2     N      0.61553000000000     0.11732000000000     0.82151000000000
N2     N      0.11553000000000     0.61732000000000     0.82151000000000
N2     N      0.61553000000000     0.88268000000000     0.32151000000000
N2     N      0.11553000000000     0.38268000000000     0.32151000000000
N2     N      0.38447000000000     0.11732000000000     0.67849000000000
N2     N      0.88447000000000     0.61732000000000     0.67849000000000
C1     C      0.44724000000000     0.02040000000000     0.21027000000000
C1     C      0.94724000000000     0.52040000000000     0.21027000000000
C1     C      0.55276000000000     0.97960000000000     0.78973000000000
C1     C      0.05276000000000     0.47960000000000     0.78973000000000
C1     C      0.55276000000000     0.02040000000000     0.28973000000000
C1     C      0.05276000000000     0.52040000000000     0.28973000000000
C1     C      0.44724000000000     0.97960000000000     0.71027000000000
C1     C      0.94724000000000     0.47960000000000     0.71027000000000
C9     C      0.39495000000000     0.15279000000000     0.16946000000000
C9     C      0.89495000000000     0.65279000000000     0.16946000000000
C9     C      0.60505000000000     0.84721000000000     0.83054000000000
C9     C      0.10505000000000     0.34721000000000     0.83054000000000
C9     C      0.60505000000000     0.15279000000000     0.33054000000000
C9     C      0.10505000000000     0.65279000000000     0.33054000000000
C9     C      0.39495000000000     0.84721000000000     0.66946000000000
C9     C      0.89495000000000     0.34721000000000     0.66946000000000
C11    C      0.44771000000000     0.28755000000000     0.20879000000000
C11    C      0.94771000000000     0.78755000000000     0.20879000000000
C11    C      0.55229000000000     0.71245000000000     0.79121000000000
C11    C      0.05229000000000     0.21245000000000     0.79121000000000
C11    C      0.55229000000000     0.28755000000000     0.29121000000000
C11    C      0.05229000000000     0.78755000000000     0.29121000000000
C11    C      0.44771000000000     0.71245000000000     0.70879000000000
C11    C      0.94771000000000     0.21245000000000     0.70879000000000
H10    H      0.31308000000000     0.15140000000000     0.10890000000000
H10    H      0.81308000000000     0.65140000000000     0.10890000000000
H10    H      0.68692000000000     0.84860000000000     0.89110000000000
H10    H      0.18692000000000     0.34860000000000     0.89110000000000
H10    H      0.68692000000000     0.15140000000000     0.39110000000000
H10    H      0.18692000000000     0.65140000000000     0.39110000000000
H10    H      0.31308000000000     0.84860000000000     0.60890000000000
H10    H      0.81308000000000     0.34860000000000     0.60890000000000
