data_default
_cell_volume           429.082442
_symmetry_space_group_name_H-M 'P 1'
_symmetry_Int_Tables_number 1
loop_
_symmetry_equiv_pos_site_id
_symmetry_equiv_pos_as_xyz
1 x,y,z
_cell_length_a         6.8180000000
_cell_length_b         8.4220000000
_cell_length_c        18.1630000000
_cell_angle_alpha        88.3270
_cell_angle_beta       100.4660
_cell_angle_gamma       153.8970
_cell_formula_units_Z 1
loop_
_atom_site_label
_atom_site_type_symbol
_atom_site_fract_x
_atom_site_fract_y
_atom_site_fract_z
Cl1    Cl     0.77840000000000     0.00010000000000     0.88330000000000
Cl1    Cl     0.22160000000000     0.99990000000000     0.11670000000000
C2     C      0.07950000000000     0.96520000000000     0.69230000000000
C2     C      0.92050000000000     0.03480000000000     0.30770000000000
C3     C      0.77370000000000     0.87490000000000     0.67450000000000
C3     C      0.22630000000000     0.12510000000000     0.32550000000000
C4     C      0.68100000000000     0.88790000000000     0.73140000000000
C4     C      0.31900000000000     0.11210000000000     0.26860000000000
C5     C      0.89460000000000     0.98890000000000     0.80830000000000
C5     C      0.10540000000000     0.01110000000000     0.19170000000000
C6     C      0.19880000000000     0.08250000000000     0.82800000000000
C6     C      0.80120000000000     0.91750000000000     0.17200000000000
C7     C      0.29660000000000     0.07020000000000     0.76980000000000
C7     C      0.70340000000000     0.92980000000000     0.23020000000000
N8     N      0.15300000000000     0.92460000000000     0.62960000000000
N8     N      0.84700000000000     0.07540000000000     0.37040000000000
N9     N      0.57040000000000     0.79020000000000     0.59210000000000
N9     N      0.42960000000000     0.20980000000000     0.40790000000000
O10    O      0.55430000000000     0.17260000000000     0.64110000000000
O10    O      0.44570000000000     0.82740000000000     0.35890000000000
O11    O      0.79450000000000     0.63690000000000     0.57320000000000
O11    O      0.20550000000000     0.36310000000000     0.42680000000000
O12    O      0.83600000000000     0.99790000000000     0.55570000000000
O12    O      0.16400000000000     0.00210000000000     0.44430000000000
O13    O      0.15360000000000     0.52720000000000     0.56880000000000
O13    O      0.84640000000000     0.47280000000000     0.43120000000000
H14    H      0.44370000000000     0.81770000000000     0.71650000000000
H14    H      0.55630000000000     0.18230000000000     0.28350000000000
H15    H      0.53570000000000     0.14210000000000     0.78450000000000
H15    H      0.46430000000000     0.85790000000000     0.21550000000000
Cl16   Cl     0.46390000000000     0.21580000000000     0.92650000000000
Cl16   Cl     0.53610000000000     0.78420000000000     0.07350000000000
