data_default
_cell_volume           856.533811
_symmetry_space_group_name_H-M 'P 1'
_symmetry_Int_Tables_number 1
loop_
_symmetry_equiv_pos_site_id
_symmetry_equiv_pos_as_xyz
1 x,y,z
_cell_length_a         5.8848933535
_cell_length_b        11.7193235196
_cell_length_c        12.4194788056
_cell_angle_alpha        90.0000
_cell_angle_beta        90.0000
_cell_angle_gamma        90.0000
_cell_formula_units_Z 1
loop_
_atom_site_label
_atom_site_type_symbol
_atom_site_fract_x
_atom_site_fract_y
_atom_site_fract_z
C0_0   C      0.22170012776636     0.62423836993001     0.66345942517578
C0_0   C      0.27829987223364     0.37576163006999     0.16345942517578
C0_0   C      0.77829987223364     0.12423836993001     0.83654057482422
C0_0   C      0.72170012776636     0.87576163006999     0.33654057482422
C1_0   C      0.39300506649774     0.68394370995414     0.71536151812132
C1_0   C      0.10699493350226     0.31605629004586     0.21536151812132
C1_0   C      0.60699493350226     0.18394370995414     0.78463848187868
C1_0   C      0.89300506649774     0.81605629004586     0.28463848187868
C3_0   C      0.08209680600796     0.55096993383394     0.72228561263280
C3_0   C      0.41790319399204     0.44903006616606     0.22228561263280
C3_0   C      0.91790319399204     0.05096993383394     0.77771438736720
C3_0   C      0.58209680600796     0.94903006616606     0.27771438736720
H0_0   H      0.19832923299360     0.63471474838146     0.57704393083529
H0_0   H      0.30167076700640     0.36528525161854     0.07704393083529
H0_0   H      0.80167076700640     0.13471474838146     0.92295606916471
H0_0   H      0.69832923299360     0.86528525161854     0.42295606916471
C2_0   C      0.42507701528867     0.67163409035370     0.82652745939434
C2_0   C      0.07492298471133     0.32836590964630     0.32652745939434
C2_0   C      0.57492298471133     0.17163409035370     0.67347254060566
C2_0   C      0.92507701528867     0.82836590964630     0.17347254060566
N0_0   N      0.55110710662065     0.74999633318117     0.64928321890183
N0_0   N      0.94889289337935     0.25000366681883     0.14928321890183
N0_0   N      0.44889289337935     0.24999633318117     0.85071678109817
N0_0   N      0.05110710662065     0.75000366681883     0.35071678109817
C4_0   C      0.11485191587134     0.53801346710489     0.83390141768687
C4_0   C      0.38514808412866     0.46198653289511     0.33390141768687
C4_0   C      0.88514808412866     0.03801346710489     0.66609858231313
C4_0   C      0.61485191587134     0.96198653289511     0.16609858231313
Cl0_0  Cl     0.87227207802184     0.47727932959898     0.65705645414119
Cl0_0  Cl     0.62772792197816     0.52272067040102     0.15705645414119
Cl0_0  Cl     0.12772792197816     0.97727932959898     0.84294354585881
Cl0_0  Cl     0.37227207802184     0.02272067040102     0.34294354585881
C5_0   C      0.28886579203938     0.59815840203424     0.88533250414563
C5_0   C      0.21113420796062     0.40184159796576     0.38533250414563
C5_0   C      0.71113420796062     0.09815840203424     0.61466749585437
C5_0   C      0.78886579203938     0.90184159796576     0.11466749585437
N1_0   N      0.58554111244077     0.74288483046726     0.88707827893442
N1_0   N      0.91445888755923     0.25711516953274     0.38707827893442
N1_0   N      0.41445888755923     0.24288483046726     0.61292172106558
N1_0   N      0.08554111244077     0.75711516953274     0.11292172106558
O0_0   O      0.47665260822216     0.79479362854723     0.56600583381291
O0_0   O      0.02334739177784     0.20520637145277     0.06600583381291
O0_0   O      0.52334739177784     0.29479362854723     0.93399416618709
O0_0   O      0.97665260822216     0.70520637145277     0.43399416618709
O1_0   O      0.75123613444550     0.75378730525974     0.67970380473220
O1_0   O      0.74876386555450     0.24621269474026     0.17970380473220
O1_0   O      0.24876386555450     0.25378730525974     0.82029619526780
O1_0   O      0.25123613444550     0.74621269474026     0.32029619526780
Cl1_0  Cl     0.93961164004117     0.45261187409302     0.90799531261834
Cl1_0  Cl     0.56038835995883     0.54738812590699     0.40799531261834
Cl1_0  Cl     0.06038835995883     0.95261187409301     0.59200468738166
Cl1_0  Cl     0.43961164004117     0.04738812590698     0.09200468738166
H1_0   H      0.31086853546487     0.59164110984208     0.97201661726721
H1_0   H      0.18913146453513     0.40835889015792     0.47201661726721
H1_0   H      0.68913146453513     0.09164110984208     0.52798338273279
H1_0   H      0.81086853546487     0.90835889015792     0.02798338273279
O2_0   O      0.58563749568922     0.84655660922360     0.86805776892463
O2_0   O      0.91436250431078     0.15344339077640     0.36805776892463
O2_0   O      0.41436250431078     0.34655660922360     0.63194223107537
O2_0   O      0.08563749568922     0.65344339077640     0.13194223107537
O3_0   O      0.70375469773377     0.69497996611990     0.95578777124310
O3_0   O      0.79624530226623     0.30502003388010     0.45578777124310
O3_0   O      0.29624530226623     0.19497996611990     0.54421222875690
O3_0   O      0.20375469773377     0.80502003388010     0.04421222875690
