data_default
_cell_volume           832.032818
_symmetry_space_group_name_H-M 'P 1'
_symmetry_Int_Tables_number 1
loop_
_symmetry_equiv_pos_site_id
_symmetry_equiv_pos_as_xyz
1 x,y,z
_cell_length_a        11.5584000000
_cell_length_b         8.8584000000
_cell_length_c         8.1262000000
_cell_angle_alpha        90.0000
_cell_angle_beta        90.0294
_cell_angle_gamma        90.0000
_cell_formula_units_Z 1
loop_
_atom_site_label
_atom_site_type_symbol
_atom_site_fract_x
_atom_site_fract_y
_atom_site_fract_z
Cl1    Cl     0.37240500000000     0.78689700000000     0.34460300000000
Cl1    Cl     0.62759500000000     0.28689700000000     0.15539700000000
Cl1    Cl     0.62759500000000     0.21310300000000     0.65539700000000
Cl1    Cl     0.37240500000000     0.71310300000000     0.84460300000000
Cl2    Cl     0.12830700000000     0.78672700000000     0.15285100000000
Cl2    Cl     0.87169300000000     0.28672700000000     0.34714900000000
Cl2    Cl     0.87169300000000     0.21327300000000     0.84714900000000
Cl2    Cl     0.12830700000000     0.71327300000000     0.65285100000000
C1     C      0.19517900000000     0.22587000000000     0.21245300000000
C1     C      0.80482100000000     0.72587000000000     0.28754700000000
C1     C      0.80482100000000     0.77413000000000     0.78754700000000
C1     C      0.19517900000000     0.27413000000000     0.71245300000000
C2     C      0.30203500000000     0.22603000000000     0.29305000000000
C2     C      0.69796500000000     0.72603000000000     0.20695000000000
C2     C      0.69796500000000     0.77397000000000     0.70695000000000
C2     C      0.30203500000000     0.27397000000000     0.79305000000000
C3     C      0.35510100000000     0.09059000000000     0.33348200000000
C3     C      0.64489900000000     0.59059000000000     0.16651800000000
C3     C      0.64489900000000     0.90941000000000     0.66651800000000
C3     C      0.35510100000000     0.40941000000000     0.83348200000000
C4     C      0.30286400000000     0.95362200000000     0.29212600000000
C4     C      0.69713600000000     0.45362200000000     0.20787400000000
C4     C      0.69713600000000     0.04637800000000     0.70787400000000
C4     C      0.30286400000000     0.54637800000000     0.79212600000000
C5     C      0.19655000000000     0.95347400000000     0.20842400000000
C5     C      0.80345000000000     0.45347400000000     0.29157600000000
C5     C      0.80345000000000     0.04652600000000     0.79157600000000
C5     C      0.19655000000000     0.54652600000000     0.70842400000000
C6     C      0.14321900000000     0.09037000000000     0.16943000000000
C6     C      0.85678100000000     0.59037000000000     0.33057000000000
C6     C      0.85678100000000     0.90963000000000     0.83057000000000
C6     C      0.14321900000000     0.40963000000000     0.66943000000000
N1     N      0.13314900000000     0.36523000000000     0.17876100000000
N1     N      0.86685100000000     0.86523000000000     0.32123900000000
N1     N      0.86685100000000     0.63477000000000     0.82123900000000
N1     N      0.13314900000000     0.13477000000000     0.67876100000000
N2     N      0.36484800000000     0.36439000000000     0.32812100000000
N2     N      0.63515200000000     0.86439000000000     0.17187900000000
N2     N      0.63515200000000     0.63561000000000     0.67187900000000
N2     N      0.36484800000000     0.13561000000000     0.82812100000000
O1     O      0.08190690000000     0.37523000000000     0.04696240000000
O1     O      0.91809310000000     0.87523000000000     0.45303760000000
O1     O      0.91809310000000     0.62477000000000     0.95303760000000
O1     O      0.08190690000000     0.12477000000000     0.54696240000000
O2     O      0.13395100000000     0.45951000000000     0.28912500000000
O2     O      0.86604900000000     0.95951000000000     0.21087500000000
O2     O      0.86604900000000     0.54049000000000     0.71087500000000
O2     O      0.13395100000000     0.04049000000000     0.78912500000000
O3     O      0.37012900000000     0.45416000000000     0.21371500000000
O3     O      0.62987100000000     0.95416000000000     0.28628500000000
O3     O      0.62987100000000     0.54584000000000     0.78628500000000
O3     O      0.37012900000000     0.04584000000000     0.71371500000000
O4     O      0.41341300000000     0.37623000000000     0.46180500000000
O4     O      0.58658700000000     0.87623000000000     0.03819500000000
O4     O      0.58658700000000     0.62377000000000     0.53819500000000
O4     O      0.41341300000000     0.12377000000000     0.96180500000000
H1     H      0.43775400000000     0.09249000000000     0.39621000000000
H1     H      0.56224600000000     0.59249000000000     0.10379000000000
H1     H      0.56224600000000     0.90751000000000     0.60379000000000
H1     H      0.43775400000000     0.40751000000000     0.89621000000000
H2     H      0.06052820000000     0.09212000000000     0.10675600000000
H2     H      0.93947180000000     0.59212000000000     0.39324400000000
H2     H      0.93947180000000     0.90788000000000     0.89324400000000
H2     H      0.06052820000000     0.40788000000000     0.60675600000000
