data_default
_cell_volume           418.675457
_symmetry_space_group_name_H-M 'P 1'
_symmetry_Int_Tables_number 1
loop_
_symmetry_equiv_pos_site_id
_symmetry_equiv_pos_as_xyz
1 x,y,z
_cell_length_a         7.2790000000
_cell_length_b         8.1860000000
_cell_length_c         9.0300000000
_cell_angle_alpha        99.7900
_cell_angle_beta        95.3610
_cell_angle_gamma       125.5720
_cell_formula_units_Z 1
loop_
_atom_site_label
_atom_site_type_symbol
_atom_site_fract_x
_atom_site_fract_y
_atom_site_fract_z
C1     C      0.04640000000000     0.26830000000000     0.92920000000000
C1     C      0.95360000000000     0.73170000000000     0.07080000000000
C2     C      0.11100000000000     0.35920000000000     0.80830000000000
C2     C      0.88900000000000     0.64080000000000     0.19170000000000
C3     C      0.16640000000000     0.38910000000000     0.08210000000000
C3     C      0.83360000000000     0.61090000000000     0.91790000000000
C4     C      0.35260000000000     0.60290000000000     0.11310000000000
C4     C      0.64740000000000     0.39710000000000     0.88690000000000
C5     C      0.29790000000000     0.57120000000000     0.83910000000000
C5     C      0.70210000000000     0.42880000000000     0.16090000000000
C6     C      0.41740000000000     0.69270000000000     0.99090000000000
C6     C      0.58260000000000     0.30730000000000     0.00910000000000
N1     N      0.39000000000000     0.67240000000000     0.71470000000000
N1     N      0.61000000000000     0.32760000000000     0.28530000000000
N2     N      0.96180000000000     0.22620000000000     0.65010000000000
N2     N      0.03820000000000     0.77380000000000     0.34990000000000
O1     O      0.40040000000000     0.56970000000000     0.60380000000000
O1     O      0.59960000000000     0.43030000000000     0.39620000000000
O2     O      0.45700000000000     0.85370000000000     0.73620000000000
O2     O      0.54300000000000     0.14630000000000     0.26380000000000
O3     O      0.90860000000000     0.30570000000000     0.56890000000000
O3     O      0.09140000000000     0.69430000000000     0.43110000000000
O4     O      0.89600000000000     0.04470000000000     0.61640000000000
O4     O      0.10400000000000     0.95530000000000     0.38360000000000
CL1    Cl     0.08040000000000     0.27160000000000     0.23040000000000
CL1    Cl     0.91960000000000     0.72840000000000     0.76960000000000
CL2    Cl     0.50590000000000     0.75820000000000     0.30120000000000
CL2    Cl     0.49410000000000     0.24180000000000     0.69880000000000
H5     H      0.56240000000000     0.85730000000000     0.01330000000000
H5     H      0.43760000000000     0.14270000000000     0.98670000000000
H6     H      0.90070000000000     0.10330000000000     0.90380000000000
H6     H      0.09930000000000     0.89670000000000     0.09620000000000
