data_default
_cell_volume           871.830589
_symmetry_space_group_name_H-M 'P 1'
_symmetry_Int_Tables_number 1
loop_
_symmetry_equiv_pos_site_id
_symmetry_equiv_pos_as_xyz
1 x,y,z
_cell_length_a         6.8470000000
_cell_length_b         5.6182000000
_cell_length_c        24.1539000000
_cell_angle_alpha        90.0000
_cell_angle_beta       110.2300
_cell_angle_gamma        90.0000
_cell_formula_units_Z 1
loop_
_atom_site_label
_atom_site_type_symbol
_atom_site_fract_x
_atom_site_fract_y
_atom_site_fract_z
C1     C      0.16198900000000     0.43507200000000     0.42731700000000
C1     C      0.83801100000000     0.93507200000000     0.07268300000000
C1     C      0.83801100000000     0.56492800000000     0.57268300000000
C1     C      0.16198900000000     0.06492800000000     0.92731700000000
C2     C      0.20902000000000     0.24433000000000     0.39816700000000
C2     C      0.79098000000000     0.74433000000000     0.10183300000000
C2     C      0.79098000000000     0.75567000000000     0.60183300000000
C2     C      0.20902000000000     0.25567000000000     0.89816700000000
C3     C      0.06143180000000     0.15667000000000     0.34694500000000
C3     C      0.93856820000000     0.65667000000000     0.15305500000000
C3     C      0.93856820000000     0.84333000000000     0.65305500000000
C3     C      0.06143180000000     0.34333000000000     0.84694500000000
C4     C      0.86541300000000     0.25687500000000     0.32552200000000
C4     C      0.13458700000000     0.75687500000000     0.17447800000000
C4     C      0.13458700000000     0.74312500000000     0.67447800000000
C4     C      0.86541300000000     0.24312500000000     0.82552200000000
C5     C      0.81575200000000     0.44773600000000     0.35480900000000
C5     C      0.18424800000000     0.94773600000000     0.14519100000000
C5     C      0.18424800000000     0.55226400000000     0.64519100000000
C5     C      0.81575200000000     0.05226400000000     0.85480900000000
C6     C      0.96538190000000     0.53820000000000     0.40588800000000
C6     C      0.03461810000000     0.03820000000000     0.09411200000000
C6     C      0.03461810000000     0.46180000000000     0.59411200000000
C6     C      0.96538190000000     0.96180000000000     0.90588800000000
N1     N      0.41350800000000     0.13129100000000     0.42599100000000
N1     N      0.58649200000000     0.63129100000000     0.07400900000000
N1     N      0.58649200000000     0.86870900000000     0.57400900000000
N1     N      0.41350800000000     0.36870900000000     0.92599100000000
N2     N      0.10967600000000     0.96909110000000     0.31120700000000
N2     N      0.89032400000000     0.46909110000000     0.18879300000000
N2     N      0.89032400000000     0.03090890000000     0.68879300000000
N2     N      0.10967600000000     0.53090890000000     0.81120700000000
O1     O      0.56153800000000     0.26326400000000     0.44462700000000
O1     O      0.43846200000000     0.76326400000000     0.05537300000000
O1     O      0.43846200000000     0.73673600000000     0.55537300000000
O1     O      0.56153800000000     0.23673600000000     0.94462700000000
O2     O      0.41503700000000     0.91671000000000     0.42985800000000
O2     O      0.58496300000000     0.41671000000000     0.07014200000000
O2     O      0.58496300000000     0.08329000000000     0.57014200000000
O2     O      0.41503700000000     0.58329000000000     0.92985800000000
O3     O      0.28090100000000     0.97479360000000     0.30722400000000
O3     O      0.71909900000000     0.47479360000000     0.19277600000000
O3     O      0.71909900000000     0.02520640000000     0.69277600000000
O3     O      0.28090100000000     0.52520640000000     0.80722400000000
O4     O      0.97156080000000     0.82977700000000     0.28705400000000
O4     O      0.02843920000000     0.32977700000000     0.21294600000000
O4     O      0.02843920000000     0.17022300000000     0.71294600000000
O4     O      0.97156080000000     0.67022300000000     0.78705400000000
H1     H      0.27851300000000     0.50222600000000     0.46713800000000
H1     H      0.72148700000000     0.00222600000000     0.03286200000000
H1     H      0.72148700000000     0.49777400000000     0.53286200000000
H1     H      0.27851300000000     0.99777400000000     0.96713800000000
H2     H      0.75193700000000     0.18666400000000     0.28554000000000
H2     H      0.24806300000000     0.68666400000000     0.21446000000000
H2     H      0.24806300000000     0.81333600000000     0.71446000000000
H2     H      0.75193700000000     0.31333600000000     0.78554000000000
CL1    Cl     0.91151800000000     0.77437800000000     0.44334900000000
CL1    Cl     0.08848200000000     0.27437800000000     0.05665100000000
CL1    Cl     0.08848200000000     0.22562200000000     0.55665100000000
CL1    Cl     0.91151800000000     0.72562200000000     0.94334900000000
CL2    Cl     0.57087800000000     0.56894400000000     0.32682900000000
CL2    Cl     0.42912200000000     0.06894400000000     0.17317100000000
CL2    Cl     0.42912200000000     0.43105600000000     0.67317100000000
CL2    Cl     0.57087800000000     0.93105600000000     0.82682900000000
