data_default
_cell_volume          1681.556413
_symmetry_space_group_name_H-M 'P 1'
_symmetry_Int_Tables_number 1
loop_
_symmetry_equiv_pos_site_id
_symmetry_equiv_pos_as_xyz
1 x,y,z
_cell_length_a        14.3913000000
_cell_length_b         8.7928000000
_cell_length_c        24.3145000000
_cell_angle_alpha        90.0000
_cell_angle_beta       146.8703
_cell_angle_gamma        90.0000
_cell_formula_units_Z 1
loop_
_atom_site_label
_atom_site_type_symbol
_atom_site_fract_x
_atom_site_fract_y
_atom_site_fract_z
C1     C      0.60303000000000     0.30318000000000     0.51031000000000
C1     C      0.10303000000000     0.80318000000000     0.51031000000000
C1     C      0.39697000000000     0.30318000000000     0.98969000000000
C1     C      0.89697000000000     0.80318000000000     0.98969000000000
C1     C      0.39697000000000     0.69682000000000     0.48969000000000
C1     C      0.89697000000000     0.19682000000000     0.48969000000000
C1     C      0.60303000000000     0.69682000000000     0.01031000000000
C1     C      0.10303000000000     0.19682000000000     0.01031000000000
C2     C      0.45430000000000     0.27530000000000     0.46725000000000
C2     C      0.95430000000000     0.77530000000000     0.46725000000000
C2     C      0.54570000000000     0.27530000000000     0.03275000000000
C2     C      0.04570000000000     0.77530000000000     0.03275000000000
C2     C      0.54570000000000     0.72470000000000     0.53275000000000
C2     C      0.04570000000000     0.22470000000000     0.53275000000000
C2     C      0.45430000000000     0.72470000000000     0.96725000000000
C2     C      0.95430000000000     0.22470000000000     0.96725000000000
C3     C      0.30145000000000     0.34647000000000     0.37600000000000
C3     C      0.80145000000000     0.84647000000000     0.37600000000000
C3     C      0.69855000000000     0.34647000000000     0.12400000000000
C3     C      0.19855000000000     0.84647000000000     0.12400000000000
C3     C      0.69855000000000     0.65353000000000     0.62400000000000
C3     C      0.19855000000000     0.15353000000000     0.62400000000000
C3     C      0.30145000000000     0.65353000000000     0.87600000000000
C3     C      0.80145000000000     0.15353000000000     0.87600000000000
C4     C      0.29222000000000     0.44620000000000     0.32559000000000
C4     C      0.79222000000000     0.94620000000000     0.32559000000000
C4     C      0.70778000000000     0.44620000000000     0.17441000000000
C4     C      0.20778000000000     0.94620000000000     0.17441000000000
C4     C      0.70778000000000     0.55380000000000     0.67441000000000
C4     C      0.20778000000000     0.05380000000000     0.67441000000000
C4     C      0.29222000000000     0.55380000000000     0.82559000000000
C4     C      0.79222000000000     0.05380000000000     0.82559000000000
C5     C      0.44210000000000     0.46894000000000     0.36757000000000
C5     C      0.94210000000000     0.96894000000000     0.36757000000000
C5     C      0.55790000000000     0.46894000000000     0.13243000000000
C5     C      0.05790000000000     0.96894000000000     0.13243000000000
C5     C      0.55790000000000     0.53106000000000     0.63243000000000
C5     C      0.05790000000000     0.03106000000000     0.63243000000000
C5     C      0.44210000000000     0.53106000000000     0.86757000000000
C5     C      0.94210000000000     0.03106000000000     0.86757000000000
C6     C      0.59640000000000     0.40029000000000     0.46116000000000
C6     C      0.09640000000000     0.90029000000000     0.46116000000000
C6     C      0.40360000000000     0.40029000000000     0.03884000000000
C6     C      0.90360000000000     0.90029000000000     0.03884000000000
C6     C      0.40360000000000     0.59971000000000     0.53884000000000
C6     C      0.90360000000000     0.09971000000000     0.53884000000000
C6     C      0.59640000000000     0.59971000000000     0.96116000000000
C6     C      0.09640000000000     0.09971000000000     0.96116000000000
Cl7    Cl     0.79158000000000     0.22136000000000     0.61981000000000
Cl7    Cl     0.29158000000000     0.72136000000000     0.61981000000000
Cl7    Cl     0.20842000000000     0.22136000000000     0.88019000000000
Cl7    Cl     0.70842000000000     0.72136000000000     0.88019000000000
Cl7    Cl     0.20842000000000     0.77864000000000     0.38019000000000
Cl7    Cl     0.70842000000000     0.27864000000000     0.38019000000000
Cl7    Cl     0.79158000000000     0.77864000000000     0.11981000000000
Cl7    Cl     0.29158000000000     0.27864000000000     0.11981000000000
Cl8    Cl     0.45359000000000     0.15900000000000     0.52262000000000
Cl8    Cl     0.95359000000000     0.65900000000000     0.52262000000000
Cl8    Cl     0.54641000000000     0.15900000000000     0.97738000000000
Cl8    Cl     0.04641000000000     0.65900000000000     0.97738000000000
Cl8    Cl     0.54641000000000     0.84100000000000     0.47738000000000
Cl8    Cl     0.04641000000000     0.34100000000000     0.47738000000000
Cl8    Cl     0.45359000000000     0.84100000000000     0.02262000000000
Cl8    Cl     0.95359000000000     0.34100000000000     0.02262000000000
N9     N      0.44205000000000     0.54947000000000     0.31963000000000
N9     N      0.94205000000000     0.04947000000000     0.31963000000000
N9     N      0.55795000000000     0.54947000000000     0.18037000000000
N9     N      0.05795000000000     0.04947000000000     0.18037000000000
N9     N      0.55795000000000     0.45053000000000     0.68037000000000
N9     N      0.05795000000000     0.95053000000000     0.68037000000000
N9     N      0.44205000000000     0.45053000000000     0.81963000000000
N9     N      0.94205000000000     0.95053000000000     0.81963000000000
N10    N      0.14264000000000     0.51978000000000     0.24088000000000
N10    N      0.64264000000000     0.01978000000000     0.24088000000000
N10    N      0.85736000000000     0.51978000000000     0.25912000000000
N10    N      0.35736000000000     0.01978000000000     0.25912000000000
N10    N      0.85736000000000     0.48022000000000     0.75912000000000
N10    N      0.35736000000000     0.98022000000000     0.75912000000000
N10    N      0.14264000000000     0.48022000000000     0.74088000000000
N10    N      0.64264000000000     0.98022000000000     0.74088000000000
O11    O      0.55789000000000     0.63112000000000     0.36411000000000
O11    O      0.05789000000000     0.13112000000000     0.36411000000000
O11    O      0.44211000000000     0.63112000000000     0.13589000000000
O11    O      0.94211000000000     0.13112000000000     0.13589000000000
O11    O      0.44211000000000     0.36888000000000     0.63589000000000
O11    O      0.94211000000000     0.86888000000000     0.63589000000000
O11    O      0.55789000000000     0.36888000000000     0.86411000000000
O11    O      0.05789000000000     0.86888000000000     0.86411000000000
O12    O      0.32874000000000     0.53700000000000     0.23066000000000
O12    O      0.82874000000000     0.03700000000000     0.23066000000000
O12    O      0.67126000000000     0.53700000000000     0.26934000000000
O12    O      0.17126000000000     0.03700000000000     0.26934000000000
O12    O      0.67126000000000     0.46300000000000     0.76934000000000
O12    O      0.17126000000000     0.96300000000000     0.76934000000000
O12    O      0.32874000000000     0.46300000000000     0.73066000000000
O12    O      0.82874000000000     0.96300000000000     0.73066000000000
O13    O      0.13892000000000     0.64684000000000     0.22084000000000
O13    O      0.63892000000000     0.14684000000000     0.22084000000000
O13    O      0.86108000000000     0.64684000000000     0.27916000000000
O13    O      0.36108000000000     0.14684000000000     0.27916000000000
O13    O      0.86108000000000     0.35316000000000     0.77916000000000
O13    O      0.36108000000000     0.85316000000000     0.77916000000000
O13    O      0.13892000000000     0.35316000000000     0.72084000000000
O13    O      0.63892000000000     0.85316000000000     0.72084000000000
O14    O      0.00585000000000     0.46677000000000     0.18401000000000
O14    O      0.50585000000000     0.96677000000000     0.18401000000000
O14    O      0.99415000000000     0.46677000000000     0.31599000000000
O14    O      0.49415000000000     0.96677000000000     0.31599000000000
O14    O      0.99415000000000     0.53323000000000     0.81599000000000
O14    O      0.49415000000000     0.03323000000000     0.81599000000000
O14    O      0.00585000000000     0.53323000000000     0.68401000000000
O14    O      0.50585000000000     0.03323000000000     0.68401000000000
H15    H      0.19476000000000     0.32507000000000     0.34606000000000
H15    H      0.69476000000000     0.82507000000000     0.34606000000000
H15    H      0.80524000000000     0.32507000000000     0.15394000000000
H15    H      0.30524000000000     0.82507000000000     0.15394000000000
H15    H      0.80524000000000     0.67493000000000     0.65394000000000
H15    H      0.30524000000000     0.17493000000000     0.65394000000000
H15    H      0.19476000000000     0.67493000000000     0.84606000000000
H15    H      0.69476000000000     0.17493000000000     0.84606000000000
H16    H      0.70586000000000     0.41937000000000     0.49356000000000
H16    H      0.20586000000000     0.91937000000000     0.49356000000000
H16    H      0.29414000000000     0.41937000000000     0.00644000000000
H16    H      0.79414000000000     0.91937000000000     0.00644000000000
H16    H      0.29414000000000     0.58063000000000     0.50644000000000
H16    H      0.79414000000000     0.08063000000000     0.50644000000000
H16    H      0.70586000000000     0.58063000000000     0.99356000000000
H16    H      0.20586000000000     0.08063000000000     0.99356000000000
