data_default
_cell_volume           512.814814
_symmetry_space_group_name_H-M 'P 1'
_symmetry_Int_Tables_number 1
loop_
_symmetry_equiv_pos_site_id
_symmetry_equiv_pos_as_xyz
1 x,y,z
_cell_length_a        12.5676000000
_cell_length_b         3.7877000000
_cell_length_c        11.2720000000
_cell_angle_alpha        90.0000
_cell_angle_beta       107.1138
_cell_angle_gamma        90.0000
_cell_formula_units_Z 1
loop_
_atom_site_label
_atom_site_type_symbol
_atom_site_fract_x
_atom_site_fract_y
_atom_site_fract_z
S      S      0.73586000000000     0.82881000000000     0.68606000000000
S      S      0.26414000000000     0.17119000000000     0.31394000000000
S      S      0.26414000000000     0.32881000000000     0.81394000000000
S      S      0.73586000000000     0.67119000000000     0.18606000000000
C      C      0.83025000000000     0.81048000000000     0.83478000000000
C      C      0.16975000000000     0.18952000000000     0.16522000000000
C      C      0.16975000000000     0.31048000000000     0.66522000000000
C      C      0.83025000000000     0.68952000000000     0.33478000000000
C      C      0.77983000000000     0.89420000000000     0.92445000000000
C      C      0.22017000000000     0.10580000000000     0.07555000000000
C      C      0.22017000000000     0.39420000000000     0.57555000000000
C      C      0.77983000000000     0.60580000000000     0.42445000000000
C      C      0.66464000000000     0.97344000000000     0.87299000000000
C      C      0.33536000000000     0.02656000000000     0.12701000000000
C      C      0.33536000000000     0.47344000000000     0.62701000000000
C      C      0.66464000000000     0.52656000000000     0.37299000000000
C      C      0.62925000000000     0.94908000000000     0.74569000000000
C      C      0.37075000000000     0.05092000000000     0.25431000000000
C      C      0.37075000000000     0.44908000000000     0.75431000000000
C      C      0.62925000000000     0.55092000000000     0.24569000000000
O      O      0.59385000000000     0.06485000000000     0.93912000000000
O      O      0.40615000000000     0.93515000000000     0.06088000000000
O      O      0.40615000000000     0.56485000000000     0.56088000000000
O      O      0.59385000000000     0.43515000000000     0.43912000000000
C      C      0.94316000000000     0.71891000000000     0.85342000000000
C      C      0.05684000000000     0.28109000000000     0.14658000000000
C      C      0.05684000000000     0.21891000000000     0.64658000000000
C      C      0.94316000000000     0.78109000000000     0.35342000000000
N      N      0.03612000000000     0.64347000000000     0.86871000000000
N      N      0.96388000000000     0.35653000000000     0.13129000000000
N      N      0.96388000000000     0.14347000000000     0.63129000000000
N      N      0.03612000000000     0.85653000000000     0.36871000000000
H      H      0.82412000000000     0.89808000000000     0.02285000000000
H      H      0.17588000000000     0.10192000000000     0.97715000000000
H      H      0.17588000000000     0.39808000000000     0.47715000000000
H      H      0.82412000000000     0.60192000000000     0.52285000000000
H      H      0.54615000000000     0.99604000000000     0.68523000000000
H      H      0.45385000000000     0.00396000000000     0.31477000000000
H      H      0.45385000000000     0.49604000000000     0.81477000000000
H      H      0.54615000000000     0.50396000000000     0.18523000000000
H      H      0.63418000000000     0.06757000000000     0.02679000000000
H      H      0.36582000000000     0.93243000000000     0.97321000000000
H      H      0.36582000000000     0.56757000000000     0.47321000000000
H      H      0.63418000000000     0.43243000000000     0.52679000000000
