data_ii-expt
_cell_volume           558.356205
_symmetry_space_group_name_H-M 'P 1'
_symmetry_Int_Tables_number 1
loop_
_symmetry_equiv_pos_site_id
_symmetry_equiv_pos_as_xyz
1 x,y,z
_cell_length_a         7.5160000000
_cell_length_b         8.3320000000
_cell_length_c         9.0590000000
_cell_angle_alpha        90.0000
_cell_angle_beta       100.1900
_cell_angle_gamma        90.0000
_cell_formula_units_Z 1
loop_
_atom_site_label
_atom_site_type_symbol
_atom_site_fract_x
_atom_site_fract_y
_atom_site_fract_z
S      S      0.14998000000000     0.97733000000000     0.35386000000000
S      S      0.35002000000000     0.47733000000000     0.14614000000000
S      S      0.85002000000000     0.02267000000000     0.64614000000000
S      S      0.64998000000000     0.52267000000000     0.85386000000000
C      C      0.20930000000000     0.16230000000000     0.42740000000000
C      C      0.29070000000000     0.66230000000000     0.07260000000000
C      C      0.79070000000000     0.83770000000000     0.57260000000000
C      C      0.70930000000000     0.33770000000000     0.92740000000000
H      H      0.17480000000000     0.25160000000000     0.37400000000000
H      H      0.32520000000000     0.75160000000000     0.12600000000000
H      H      0.82520000000000     0.74840000000000     0.62600000000000
H      H      0.67480000000000     0.24840000000000     0.87400000000000
C      C      0.31200000000000     0.15200000000000     0.56767000000000
C      C      0.18800000000000     0.65200000000000     0.93233000000000
C      C      0.68800000000000     0.84800000000000     0.43233000000000
C      C      0.81200000000000     0.34800000000000     0.06767000000000
O      O      0.38079000000000     0.27651000000000     0.65667000000000
O      O      0.11921000000000     0.77651000000000     0.84333000000000
O      O      0.61921000000000     0.72349000000000     0.34333000000000
O      O      0.88079000000000     0.22349000000000     0.15667000000000
H      H      0.34590000000000     0.35400000000000     0.61520000000000
H      H      0.15410000000000     0.85400000000000     0.88480000000000
H      H      0.65410000000000     0.64600000000000     0.38480000000000
H      H      0.84590000000000     0.14600000000000     0.11520000000000
C      C      0.34360000000000     0.99270000000000     0.61780000000000
C      C      0.15640000000000     0.49270000000000     0.88220000000000
C      C      0.65640000000000     0.00730000000000     0.38220000000000
C      C      0.84360000000000     0.50730000000000     0.11780000000000
H      H      0.41180000000000     0.96580000000000     0.71290000000000
H      H      0.08820000000000     0.46580000000000     0.78710000000000
H      H      0.58820000000000     0.03420000000000     0.28710000000000
H      H      0.91180000000000     0.53420000000000     0.21290000000000
C      C      0.26410000000000     0.88500000000000     0.51280000000000
C      C      0.23590000000000     0.38500000000000     0.98720000000000
C      C      0.73590000000000     0.11500000000000     0.48720000000000
C      C      0.76410000000000     0.61500000000000     0.01280000000000
C      C      0.26630000000000     0.71490000000000     0.52500000000000
C      C      0.23370000000000     0.21490000000000     0.97500000000000
C      C      0.73370000000000     0.28510000000000     0.47500000000000
C      C      0.76630000000000     0.78510000000000     0.02500000000000
N      N      0.26820000000000     0.57750000000000     0.53365000000000
N      N      0.23180000000000     0.07750000000000     0.96635000000000
N      N      0.73180000000000     0.42250000000000     0.46635000000000
N      N      0.76820000000000     0.92250000000000     0.03365000000000
