data_default
_cell_volume           347.997183
_symmetry_space_group_name_H-M 'P 1'
_symmetry_Int_Tables_number 1
loop_
_symmetry_equiv_pos_site_id
_symmetry_equiv_pos_as_xyz
1 x,y,z
_cell_length_a         9.5390000000
_cell_length_b         8.3670000000
_cell_length_c         7.0710000000
_cell_angle_alpha        63.9290
_cell_angle_beta        72.7530
_cell_angle_gamma        43.3890
_cell_formula_units_Z 1
loop_
_atom_site_label
_atom_site_type_symbol
_atom_site_fract_x
_atom_site_fract_y
_atom_site_fract_z
C      C      0.87182000000000     0.82162000000000     0.26544000000000
C      C      0.12818000000000     0.17838000000000     0.73456000000000
C      C      0.83181000000000     0.90926000000000     0.90930000000000
C      C      0.16819000000000     0.09074000000000     0.09070000000000
C      C      0.73898000000000     0.94513000000000     0.11115000000000
C      C      0.26102000000000     0.05487000000000     0.88885000000000
C      C      0.03378000000000     0.75722000000000     0.92477000000000
C      C      0.96622000000000     0.24278000000000     0.07523000000000
S      S      0.12753000000000     0.64627000000000     0.17940000000000
S      S      0.87247000000000     0.35373000000000     0.82060000000000
C      C      0.16592000000000     0.68767000000000     0.75148000000000
C      C      0.83408000000000     0.31233000000000     0.24852000000000
N      N      0.27214000000000     0.63176000000000     0.61213000000000
N      N      0.72786000000000     0.36824000000000     0.38787000000000
H      H      0.83326000000000     0.82400000000000     0.42608000000000
H      H      0.16674000000000     0.17600000000000     0.57392000000000
O      O      0.53746000000000     0.09047000000000     0.13522000000000
O      O      0.46254000000000     0.90953000000000     0.86478000000000
H      H      0.74650000000000     0.99558000000000     0.76712000000000
H      H      0.25350000000000     0.00442000000000     0.23288000000000
H      H      0.49391000000000     0.10033000000000     0.27265000000000
H      H      0.50609000000000     0.89967000000000     0.72735000000000
