data_default
_cell_volume           570.562110
_symmetry_space_group_name_H-M 'P 1'
_symmetry_Int_Tables_number 1
loop_
_symmetry_equiv_pos_site_id
_symmetry_equiv_pos_as_xyz
1 x,y,z
_cell_length_a         6.0000000000
_cell_length_b         3.8790000000
_cell_length_c        24.5150000000
_cell_angle_alpha        90.0000
_cell_angle_beta        90.0000
_cell_angle_gamma        90.0000
_cell_formula_units_Z 1
loop_
_atom_site_label
_atom_site_type_symbol
_atom_site_fract_x
_atom_site_fract_y
_atom_site_fract_z
C      C      0.76815000000000     0.40020000000000     0.05764000000000
C      C      0.23185000000000     0.59980000000000     0.94236000000000
C      C      0.23185000000000     0.90020000000000     0.44236000000000
C      C      0.76815000000000     0.09980000000000     0.55764000000000
C      C      0.97046000000000     0.18588000000000     0.13303000000000
C      C      0.02954000000000     0.81412000000000     0.86697000000000
C      C      0.02954000000000     0.68588000000000     0.36697000000000
C      C      0.97046000000000     0.31412000000000     0.63303000000000
C      C      0.95841000000000     0.25570000000000     0.07409000000000
C      C      0.04159000000000     0.74430000000000     0.92591000000000
C      C      0.04159000000000     0.75570000000000     0.42591000000000
C      C      0.95841000000000     0.24430000000000     0.57409000000000
C      C      0.78249000000000     0.28594000000000     0.15753000000000
C      C      0.21751000000000     0.71406000000000     0.84247000000000
C      C      0.21751000000000     0.78594000000000     0.34247000000000
C      C      0.78249000000000     0.21406000000000     0.65753000000000
S      S      0.57976000000000     0.46848000000000     0.11276000000000
S      S      0.42024000000000     0.53152000000000     0.88724000000000
S      S      0.42024000000000     0.96848000000000     0.38724000000000
S      S      0.57976000000000     0.03152000000000     0.61276000000000
C      C      0.74479000000000     0.25063000000000     0.21527000000000
C      C      0.25521000000000     0.74937000000000     0.78473000000000
C      C      0.25521000000000     0.75063000000000     0.28473000000000
C      C      0.74479000000000     0.24937000000000     0.71527000000000
N      N      0.71451000000000     0.22223000000000     0.26170000000000
N      N      0.28549000000000     0.77777000000000     0.73830000000000
N      N      0.28549000000000     0.72223000000000     0.23830000000000
N      N      0.71451000000000     0.27777000000000     0.76170000000000
H      H      0.73085000000000     0.46924000000000     0.01555000000000
H      H      0.26915000000000     0.53076000000000     0.98445000000000
H      H      0.26915000000000     0.96924000000000     0.48445000000000
H      H      0.73085000000000     0.03076000000000     0.51555000000000
O      O      0.12336000000000     0.18175000000000     0.03935000000000
O      O      0.87664000000000     0.81825000000000     0.96065000000000
O      O      0.87664000000000     0.68175000000000     0.46065000000000
O      O      0.12336000000000     0.31825000000000     0.53935000000000
H      H      0.11206000000000     0.06932000000000     0.15388000000000
H      H      0.88794000000000     0.93068000000000     0.84612000000000
H      H      0.88794000000000     0.56932000000000     0.34612000000000
H      H      0.11206000000000     0.43068000000000     0.65388000000000
H      H      0.24907000000000     0.07959000000000     0.05656000000000
H      H      0.75093000000000     0.92041000000000     0.94344000000000
H      H      0.75093000000000     0.57959000000000     0.44344000000000
H      H      0.24907000000000     0.42041000000000     0.55656000000000
