data_default
_cell_volume           603.070461
_symmetry_space_group_name_H-M 'P 1'
_symmetry_Int_Tables_number 1
loop_
_symmetry_equiv_pos_site_id
_symmetry_equiv_pos_as_xyz
1 x,y,z
_cell_length_a         8.6700000000
_cell_length_b         5.4900000000
_cell_length_c        12.6700000000
_cell_angle_alpha        90.0000
_cell_angle_beta        90.0000
_cell_angle_gamma        90.0000
_cell_formula_units_Z 1
loop_
_atom_site_label
_atom_site_type_symbol
_atom_site_fract_x
_atom_site_fract_y
_atom_site_fract_z
H      H      0.24627000000000     0.75360000000000     0.07776000000000
H      H      0.75373000000000     0.24640000000000     0.57776000000000
H      H      0.25373000000000     0.25360000000000     0.57776000000000
H      H      0.74627000000000     0.74640000000000     0.07776000000000
C      C      0.19196000000000     0.90309000000000     0.03833000000000
C      C      0.80804000000000     0.09691000000000     0.53833000000000
C      C      0.30804000000000     0.40309000000000     0.53833000000000
C      C      0.69196000000000     0.59691000000000     0.03833000000000
C      C      0.13520000000000     0.10641000000000     0.08351000000000
C      C      0.86480000000000     0.89359000000000     0.58351000000000
C      C      0.36480000000000     0.60641000000000     0.58351000000000
C      C      0.63520000000000     0.39359000000000     0.08351000000000
O      O      0.14062000000000     0.14637000000000     0.18829000000000
O      O      0.85938000000000     0.85363000000000     0.68829000000000
O      O      0.35938000000000     0.64637000000000     0.68829000000000
O      O      0.64062000000000     0.35363000000000     0.18829000000000
H      H      0.09578000000000     0.29722000000000     0.20618000000000
H      H      0.90422000000000     0.70278000000000     0.70618000000000
H      H      0.40422000000000     0.79722000000000     0.70618000000000
H      H      0.59578000000000     0.20278000000000     0.20618000000000
C      C      0.06981000000000     0.27132000000000     0.00835000000000
C      C      0.93019000000000     0.72868000000000     0.50835000000000
C      C      0.43019000000000     0.77132000000000     0.50835000000000
C      C      0.56981000000000     0.22868000000000     0.00835000000000
H      H      0.01849000000000     0.44357000000000     0.02796000000000
H      H      0.98151000000000     0.55643000000000     0.52796000000000
H      H      0.48151000000000     0.94357000000000     0.52796000000000
H      H      0.51849000000000     0.05643000000000     0.02796000000000
C      C      0.07999000000000     0.18504000000000     0.90872000000000
C      C      0.92001000000000     0.81496000000000     0.40872000000000
C      C      0.42001000000000     0.68504000000000     0.40872000000000
C      C      0.57999000000000     0.31496000000000     0.90872000000000
C      C      0.02573000000000     0.30524000000000     0.81572000000000
C      C      0.97427000000000     0.69476000000000     0.31572000000000
C      C      0.47427000000000     0.80524000000000     0.31572000000000
C      C      0.52573000000000     0.19476000000000     0.81572000000000
N      N      0.98269000000000     0.40049000000000     0.74173000000000
N      N      0.01731000000000     0.59951000000000     0.24173000000000
N      N      0.51731000000000     0.90049000000000     0.24173000000000
N      N      0.48269000000000     0.09951000000000     0.74173000000000
S      S      0.16847000000000     0.90365000000000     0.90346000000000
S      S      0.83153000000000     0.09635000000000     0.40346000000000
S      S      0.33153000000000     0.40365000000000     0.40346000000000
S      S      0.66847000000000     0.59635000000000     0.90346000000000
