data_default
_cell_volume           565.649214
_symmetry_space_group_name_H-M 'P 1'
_symmetry_Int_Tables_number 1
loop_
_symmetry_equiv_pos_site_id
_symmetry_equiv_pos_as_xyz
1 x,y,z
_cell_length_a         9.4554850000
_cell_length_b         7.0092000000
_cell_length_c         8.5348310000
_cell_angle_alpha        90.0000
_cell_angle_beta        90.0000
_cell_angle_gamma        90.0000
_cell_formula_units_Z 1
loop_
_atom_site_label
_atom_site_type_symbol
_atom_site_fract_x
_atom_site_fract_y
_atom_site_fract_z
S      S      0.17379800000000     0.62387200000000     0.20897100000000
S      S      0.32620200000000     0.37612800000000     0.70897100000000
S      S      0.67379800000000     0.87612800000000     0.79102900000000
S      S      0.82620200000000     0.12387200000000     0.29102900000000
C      C      0.10027300000000     0.62233300000000     0.39283800000000
C      C      0.39972700000000     0.37766700000000     0.89283800000000
C      C      0.60027300000000     0.87766700000000     0.60716200000000
C      C      0.89972700000000     0.12233300000000     0.10716200000000
C      C      0.95425400000000     0.61470500000000     0.38684000000000
C      C      0.54574600000000     0.38529500000000     0.88684000000000
C      C      0.45425400000000     0.88529500000000     0.61316000000000
C      C      0.04574600000000     0.11470500000000     0.11316000000000
C      C      0.90105400000000     0.60994800000000     0.23206800000000
C      C      0.59894600000000     0.39005200000000     0.73206800000000
C      C      0.40105400000000     0.89005200000000     0.76793200000000
C      C      0.09894600000000     0.10994800000000     0.26793200000000
C      C      0.00857600000000     0.61408300000000     0.12239700000000
C      C      0.49142400000000     0.38591700000000     0.62239700000000
C      C      0.50857600000000     0.88591700000000     0.87760300000000
C      C      0.99142400000000     0.11408300000000     0.37760300000000
C      C      0.99341700000000     0.61120800000000     0.95694200000000
C      C      0.50658300000000     0.38879200000000     0.45694200000000
C      C      0.49341700000000     0.88879200000000     0.04305800000000
C      C      0.00658300000000     0.11120800000000     0.54305800000000
N      N      0.98119100000000     0.60876300000000     0.81871800000000
N      N      0.51880900000000     0.39123700000000     0.31871800000000
N      N      0.48119100000000     0.89123700000000     0.18128200000000
N      N      0.01880900000000     0.10876300000000     0.68128200000000
O      O      0.86256500000000     0.61146100000000     0.51054100000000
O      O      0.63743500000000     0.38853900000000     0.01054100000000
O      O      0.36256500000000     0.88853900000000     0.48945900000000
O      O      0.13743500000000     0.11146100000000     0.98945900000000
H      H      0.16712700000000     0.62703600000000     0.49518900000000
H      H      0.33287300000000     0.37296400000000     0.99518900000000
H      H      0.66712700000000     0.87296400000000     0.50481100000000
H      H      0.83287300000000     0.12703600000000     0.00481100000000
H      H      0.91617100000000     0.61573800000000     0.60669000000000
H      H      0.58382900000000     0.38426200000000     0.10669000000000
H      H      0.41617100000000     0.88426200000000     0.39331000000000
H      H      0.08382900000000     0.11573800000000     0.89331000000000
H      H      0.79005500000000     0.60381300000000     0.20302500000000
H      H      0.70994500000000     0.39618700000000     0.70302500000000
H      H      0.29005500000000     0.89618700000000     0.79697500000000
H      H      0.20994500000000     0.10381300000000     0.29697500000000
