data_default
_cell_volume           533.573603
_symmetry_space_group_name_H-M 'P 1'
_symmetry_Int_Tables_number 1
loop_
_symmetry_equiv_pos_site_id
_symmetry_equiv_pos_as_xyz
1 x,y,z
_cell_length_a         5.1048980000
_cell_length_b         8.0752480000
_cell_length_c        12.9445100000
_cell_angle_alpha        90.0000
_cell_angle_beta        90.7192
_cell_angle_gamma        90.0000
_cell_formula_units_Z 1
loop_
_atom_site_label
_atom_site_type_symbol
_atom_site_fract_x
_atom_site_fract_y
_atom_site_fract_z
S      S      0.13023900000000     0.12160800000000     0.84620200000000
S      S      0.86976100000000     0.87839200000000     0.15379800000000
S      S      0.86976100000000     0.62160800000000     0.65379800000000
S      S      0.13023900000000     0.37839200000000     0.34620200000000
C      C      0.86903700000000     0.22120500000000     0.78918300000000
C      C      0.13096300000000     0.77879500000000     0.21081700000000
C      C      0.13096300000000     0.72120500000000     0.71081700000000
C      C      0.86903700000000     0.27879500000000     0.28918300000000
C      C      0.74342200000000     0.32476100000000     0.85768600000000
C      C      0.25657800000000     0.67523900000000     0.14231400000000
C      C      0.25657800000000     0.82476100000000     0.64231400000000
C      C      0.74342200000000     0.17523900000000     0.35768600000000
C      C      0.85939300000000     0.32376600000000     0.95742900000000
C      C      0.14060700000000     0.67623400000000     0.04257100000000
C      C      0.14060700000000     0.82376600000000     0.54257100000000
C      C      0.85939300000000     0.17623400000000     0.45742900000000
C      C      0.07285800000000     0.21855800000000     0.96287500000000
C      C      0.92714200000000     0.78144200000000     0.03712500000000
C      C      0.92714200000000     0.71855800000000     0.53712500000000
C      C      0.07285800000000     0.28144200000000     0.46287500000000
C      C      0.23433500000000     0.18749400000000     0.05076700000000
C      C      0.76566500000000     0.81250600000000     0.94923300000000
C      C      0.76566500000000     0.68749400000000     0.44923300000000
C      C      0.23433500000000     0.31250600000000     0.55076700000000
N      N      0.36970900000000     0.16128300000000     0.12402800000000
N      N      0.63029100000000     0.83871700000000     0.87597200000000
N      N      0.63029100000000     0.66128300000000     0.37597200000000
N      N      0.36970900000000     0.33871700000000     0.62402800000000
O      O      0.52960500000000     0.42213300000000     0.83821200000000
O      O      0.47039500000000     0.57786700000000     0.16178800000000
O      O      0.47039500000000     0.92213300000000     0.66178800000000
O      O      0.52960500000000     0.07786700000000     0.33821200000000
H      H      0.82092100000000     0.19905400000000     0.70892500000000
H      H      0.17907900000000     0.80094600000000     0.29107500000000
H      H      0.17907900000000     0.69905400000000     0.79107500000000
H      H      0.82092100000000     0.30094600000000     0.20892500000000
H      H      0.47596700000000     0.40772400000000     0.76700300000000
H      H      0.52403300000000     0.59227600000000     0.23299700000000
H      H      0.52403300000000     0.90772400000000     0.73299700000000
H      H      0.47596700000000     0.09227600000000     0.26700300000000
H      H      0.78992200000000     0.39626900000000     0.02159800000000
H      H      0.21007800000000     0.60373100000000     0.97840200000000
H      H      0.21007800000000     0.89626900000000     0.47840200000000
H      H      0.78992200000000     0.10373100000000     0.52159800000000
