data_default
_cell_volume           574.738988
_symmetry_space_group_name_H-M 'P 1'
_symmetry_Int_Tables_number 1
loop_
_symmetry_equiv_pos_site_id
_symmetry_equiv_pos_as_xyz
1 x,y,z
_cell_length_a         9.1869000000
_cell_length_b         8.3558000000
_cell_length_c         7.4871000000
_cell_angle_alpha        90.0000
_cell_angle_beta        90.0000
_cell_angle_gamma        90.0000
_cell_formula_units_Z 1
loop_
_atom_site_label
_atom_site_type_symbol
_atom_site_fract_x
_atom_site_fract_y
_atom_site_fract_z
C      C      0.14254000000000     0.93340000000000     0.36557000000000
C      C      0.35746000000000     0.06660000000000     0.86557000000000
C      C      0.64254000000000     0.56660000000000     0.63443000000000
C      C      0.85746000000000     0.43340000000000     0.13443000000000
C      C      0.24127000000000     0.65777000000000     0.35230000000000
C      C      0.25873000000000     0.34223000000000     0.85230000000000
C      C      0.74127000000000     0.84223000000000     0.64770000000000
C      C      0.75873000000000     0.15777000000000     0.14770000000000
C      C      0.33921000000000     0.10676000000000     0.37609000000000
C      C      0.16079000000000     0.89324000000000     0.87609000000000
C      C      0.83921000000000     0.39324000000000     0.62391000000000
C      C      0.66079000000000     0.60676000000000     0.12391000000000
S      S      0.42199000000000     0.92143000000000     0.36730000000000
S      S      0.07801000000000     0.07857000000000     0.86730000000000
S      S      0.92199000000000     0.57857000000000     0.63270000000000
S      S      0.57801000000000     0.42143000000000     0.13270000000000
H      H      0.39828000000000     0.20429000000000     0.38157000000000
H      H      0.10172000000000     0.79571000000000     0.88157000000000
H      H      0.89828000000000     0.29571000000000     0.61843000000000
H      H      0.60172000000000     0.70429000000000     0.11843000000000
C      C      0.25379000000000     0.82827000000000     0.36113000000000
C      C      0.24621000000000     0.17173000000000     0.86113000000000
C      C      0.75379000000000     0.67173000000000     0.63887000000000
C      C      0.74621000000000     0.32827000000000     0.13887000000000
H      H      0.03930000000000     0.90396000000000     0.36320000000000
H      H      0.46070000000000     0.09604000000000     0.86320000000000
H      H      0.53930000000000     0.59604000000000     0.63680000000000
H      H      0.96070000000000     0.40396000000000     0.13680000000000
O      O      0.09473000000000     0.21449000000000     0.37955000000000
O      O      0.40527000000000     0.78551000000000     0.87955000000000
O      O      0.59473000000000     0.28551000000000     0.62045000000000
O      O      0.90527000000000     0.71449000000000     0.12045000000000
C      C      0.19293000000000     0.09534000000000     0.37428000000000
C      C      0.30707000000000     0.90466000000000     0.87428000000000
C      C      0.69293000000000     0.40466000000000     0.62572000000000
C      C      0.80707000000000     0.59534000000000     0.12572000000000
H      H      0.13570000000000     0.30468000000000     0.38450000000000
H      H      0.36430000000000     0.69532000000000     0.88450000000000
H      H      0.63570000000000     0.19532000000000     0.61550000000000
H      H      0.86430000000000     0.80468000000000     0.11550000000000
N      N      0.23206000000000     0.52230000000000     0.34530000000000
N      N      0.26794000000000     0.47770000000000     0.84530000000000
N      N      0.73206000000000     0.97770000000000     0.65470000000000
N      N      0.76794000000000     0.02230000000000     0.15470000000000
