data_default
_cell_volume           593.411578
_symmetry_space_group_name_H-M 'P 1'
_symmetry_Int_Tables_number 1
loop_
_symmetry_equiv_pos_site_id
_symmetry_equiv_pos_as_xyz
1 x,y,z
_cell_length_a         7.7805000000
_cell_length_b         9.3824000000
_cell_length_c         8.1862000000
_cell_angle_alpha        90.0000
_cell_angle_beta        83.2200
_cell_angle_gamma        90.0000
_cell_formula_units_Z 1
loop_
_atom_site_label
_atom_site_type_symbol
_atom_site_fract_x
_atom_site_fract_y
_atom_site_fract_z
C      C      0.80076000000000     0.15723000000000     0.97906000000000
C      C      0.19924000000000     0.84277000000000     0.02094000000000
C      C      0.19924000000000     0.65723000000000     0.52094000000000
C      C      0.80076000000000     0.34277000000000     0.47906000000000
C      C      0.50181000000000     0.20593000000000     0.10672000000000
C      C      0.49819000000000     0.79407000000000     0.89328000000000
C      C      0.49819000000000     0.70593000000000     0.39328000000000
C      C      0.50181000000000     0.29407000000000     0.60672000000000
C      C      0.91838000000000     0.37232000000000     0.88206000000000
C      C      0.08162000000000     0.62768000000000     0.11794000000000
C      C      0.08162000000000     0.87232000000000     0.61794000000000
C      C      0.91838000000000     0.12768000000000     0.38206000000000
S      S      0.71291000000000     0.42064000000000     0.96684000000000
S      S      0.28709000000000     0.57936000000000     0.03316000000000
S      S      0.28709000000000     0.92064000000000     0.53316000000000
S      S      0.71291000000000     0.07936000000000     0.46684000000000
H      H      0.99859000000000     0.44436000000000     0.83082000000000
H      H      0.00141000000000     0.55564000000000     0.16918000000000
H      H      0.00141000000000     0.94436000000000     0.66918000000000
H      H      0.99859000000000     0.05564000000000     0.33082000000000
C      C      0.66671000000000     0.24568000000000     0.02300000000000
C      C      0.33329000000000     0.75432000000000     0.97700000000000
C      C      0.33329000000000     0.74568000000000     0.47700000000000
C      C      0.66671000000000     0.25432000000000     0.52300000000000
H      H      0.79980000000000     0.05438000000000     0.00004000000000
H      H      0.20020000000000     0.94562000000000     0.99996000000000
H      H      0.20020000000000     0.55438000000000     0.49996000000000
H      H      0.79980000000000     0.44562000000000     0.50004000000000
O      O      0.09124000000000     0.15778000000000     0.84546000000000
O      O      0.90876000000000     0.84222000000000     0.15454000000000
O      O      0.90876000000000     0.65778000000000     0.65454000000000
O      O      0.09124000000000     0.34222000000000     0.34546000000000
C      C      0.94691000000000     0.23155000000000     0.89705000000000
C      C      0.05309000000000     0.76845000000000     0.10295000000000
C      C      0.05309000000000     0.73155000000000     0.60295000000000
C      C      0.94691000000000     0.26845000000000     0.39705000000000
H      H      0.16913000000000     0.21142000000000     0.79895000000000
H      H      0.83087000000000     0.78858000000000     0.20105000000000
H      H      0.83087000000000     0.71142000000000     0.70105000000000
H      H      0.16913000000000     0.28858000000000     0.29895000000000
N      N      0.37059000000000     0.17504000000000     0.17319000000000
N      N      0.62941000000000     0.82496000000000     0.82681000000000
N      N      0.62941000000000     0.67504000000000     0.32681000000000
N      N      0.37059000000000     0.32496000000000     0.67319000000000
