data_dwmh_21_3
# 22 E -74.63 d     1.58
_symmetry_cell_setting        monoclinic
_symmetry_space_group_name_H-M  'P 21'
_symmetry_Int_Tables_number  4
loop_
_symmetry-equiv_pos_site_id
_symmetry_equiv_pos_as_xyz
1 x,y,z
2 -x,1/2+y,-z
_cell_length_a      6.285
_cell_length_b      10.261
_cell_length_c      6.7199993
_cell_angle_alpha   90.0
_cell_angle_beta    65.65
_cell_angle_gamma   90.0
_cell_volume        394.8239
loop_
_atom_site_label
_atom_site_type_symbol
_atom_site_fract_x
_atom_site_fract_y
_atom_site_fract_z
O1 O  -0.52780 0.37930 0.52860
O2 O  -0.48270 0.58920 0.44510
O3 O  -0.17980 0.14150 -0.17900
O4 O  -0.02370 0.32520 -0.49230
O5 O  -0.06080 0.58580 -0.38540
C6 C  -0.32370 0.43340 0.15850
C7 C  -0.30340 0.30270 0.10100
C8 C  -0.19710 0.27040 -0.11940
C9 C  -0.11920 0.36530 -0.27710
C10 C  -0.13980 0.49630 -0.21660
C11 C  -0.23920 0.52890 -0.00080
C12 C  -0.44990 0.47650 0.38850
H13 H  -0.62910 0.40850 0.67700
H14 H  -0.36420 0.22220 0.21490
H15 H  -0.05430 0.12660 -0.32460
H16 H  0.02440 0.40050 -0.59150
H17 H  -0.10480 0.67360 -0.32340
H18 H  -0.25360 0.63130 0.04160
O19 O  0.27240 0.41230 -0.04400
H20 H  0.27850 0.34650 0.05980
H21 H  0.20810 0.49360 0.03510
