data_002XXID\P212121\-\1
_symmetry_cell_setting           orthorhombic
_symmetry_space_group_name_H-M   'P 21 21 21'
_symmetry_Int_Tables_number      19
loop_
_symmetry_equiv_pos_site_id
_symmetry_equiv_pos_as_xyz
1 x,y,z
2 1/2-x,-y,1/2+z
3 -x,1/2+y,1/2-z
4 1/2+x,1/2-y,-z
_cell_length_a                   14.9561
_cell_length_b                   3.6723
_cell_length_c                   13.7735
_cell_angle_alpha                90.0000
_cell_angle_beta                 90.0000
_cell_angle_gamma                90.0000
_cell_volume                     756.486
loop_
_atom_site_label
_atom_site_type_symbol
_atom_site_fract_x
_atom_site_fract_y
_atom_site_fract_z
O1 O 0.29114 0.14326 0.80715
O2 O 0.13617 -0.17066 0.86247
O3 O 0.11539 -0.45740 1.04289
O4 O 0.49411 0.03845 1.09956
H5 H 0.53666 0.02836 1.15246
O6 O 0.41269 -0.24662 1.21358
C7 C 0.34563 -0.12977 1.05883
C8 C 0.35788 0.01995 0.96612
H9 H 0.42109 0.14367 0.94662
C10 C 0.28794 0.00687 0.90016
C11 C 0.20651 -0.15281 0.92549
C12 C 0.19469 -0.30167 1.01805
C13 C 0.26432 -0.29004 1.08471
H14 H 0.25550 -0.40483 1.15641
C15 C 0.41797 -0.12372 1.13235
H16 H 0.34875 0.24927 0.79415
H17 H 0.15322 -0.05884 0.80173
H18 H 0.07507 -0.44147 0.98825
O19 O 0.43605 0.43547 0.73117
H20 H 0.47341 0.64193 0.74465
H21 H 0.41312 0.45343 0.66625
