data_vaneijck.002
#   Generated as c2c-08848
# Energy -2620.938 kJ/mole
_cell_length_a  45.56000
_cell_length_b   3.57200
_cell_length_c  28.27400
_cell_angle_alpha    90.000
_cell_angle_beta    17.424
_cell_angle_gamma    90.000
_cell_formula_units_Z   8
loop_
_symmetry_equiv_pos_as_xyz
x,y,z
    -x,-y,-z                                          
    -x,y,-z+1/2                                       
    x,-y,z+1/2                                        
    x+1/2,y+1/2,z                                     
    -x+1/2,-y+1/2,-z                                  
    -x+1/2,y+1/2,-z+1/2                               
    x+1/2,-y+1/2,z+1/2                                
_symmetry_space_group_name_H-M 'C 2/c    '
loop_
_atom_site_label
_atom_site_fract_x
_atom_site_fract_y
_atom_site_fract_z
C1    0.589920  0.402690 -0.047300
C2    0.662700  0.413760 -0.198240
O3    0.745390  0.517160 -0.321090
O4    0.626070  0.292450 -0.182640
H5    0.675220  0.313130 -0.282300
C6    0.620140  0.523800 -0.049490
H7    0.693370  0.624790 -0.157330
C8    0.556120  0.517450  0.086570
O9    0.580780  0.640830  0.092660
H10   0.639770  0.782630  0.000460
C11   0.461500  0.381370  0.226030
O12   0.394160  0.367420  0.364570
H13   0.420990  0.435350  0.353240
C14   0.432080  0.256510  0.226980
O15   0.341030  0.119850  0.359930
H16   0.311160  0.044270  0.435040
C17   0.495590  0.268880  0.091290
H18   0.470610  0.174560  0.095820
O19   0.753010  0.787660 -0.067940
H20   0.705220  0.618590 -0.006620
H21   0.790210  0.640820 -0.103470
