data_default
_cell_volume           343.941282
_symmetry_space_group_name_H-M 'P 1'
_symmetry_Int_Tables_number 1
loop_
_symmetry_equiv_pos_site_id
_symmetry_equiv_pos_as_xyz
1 x,y,z
_cell_length_a         7.1449800000
_cell_length_b         7.0229700000
_cell_length_c         6.8542900000
_cell_angle_alpha        90.0000
_cell_angle_beta        90.0000
_cell_angle_gamma        90.0000
_cell_formula_units_Z 1
loop_
_atom_site_label
_atom_site_type_symbol
_atom_site_fract_x
_atom_site_fract_y
_atom_site_fract_z
C1     C      0.40414600000000     0.42157400000000     0.35894100000000
C1     C      0.59585400000000     0.57842600000000     0.85894100000000
C1     C      0.90414600000000     0.57842600000000     0.35894100000000
C1     C      0.09585400000000     0.42157400000000     0.85894100000000
O2     O      0.46118500000000     0.57264800000000     0.41621500000000
O2     O      0.53881500000000     0.42735200000000     0.91621500000000
O2     O      0.96118500000000     0.42735200000000     0.41621500000000
O2     O      0.03881500000000     0.57264800000000     0.91621500000000
H3     H      0.29897700000000     0.41462300000000     0.24414200000000
H3     H      0.70102300000000     0.58537700000000     0.74414200000000
H3     H      0.79897700000000     0.58537700000000     0.24414200000000
H3     H      0.20102300000000     0.41462300000000     0.74414200000000
C4     C      0.46847200000000     0.23836600000000     0.43630000000000
C4     C      0.53152800000000     0.76163400000000     0.93630000000000
C4     C      0.96847200000000     0.76163400000000     0.43630000000000
C4     C      0.03152800000000     0.23836600000000     0.93630000000000
H5     H      0.57324700000000     0.24914600000000     0.54947300000000
H5     H      0.42675300000000     0.75085400000000     0.04947300000000
H5     H      0.07324700000000     0.75085400000000     0.54947300000000
H5     H      0.92675300000000     0.24914600000000     0.04947300000000
C6     C      0.40507800000000     0.06958600000000     0.37512200000000
C6     C      0.59492200000000     0.93041400000000     0.87512200000000
C6     C      0.90507800000000     0.93041400000000     0.37512200000000
C6     C      0.09492200000000     0.06958600000000     0.87512200000000
H7     H      0.45490100000000     0.93663900000000     0.43541600000000
H7     H      0.54509900000000     0.06336100000000     0.93541600000000
H7     H      0.95490100000000     0.06336100000000     0.43541600000000
H7     H      0.04509900000000     0.93663900000000     0.93541600000000
H8     H      0.30017300000000     0.05599800000000     0.26225800000000
H8     H      0.69982700000000     0.94400200000000     0.76225800000000
H8     H      0.80017300000000     0.94400200000000     0.26225800000000
H8     H      0.19982700000000     0.05599800000000     0.76225800000000
