data_default
_cell_volume           633.731024
_symmetry_space_group_name_H-M 'P 1'
_symmetry_Int_Tables_number 1
loop_
_symmetry_equiv_pos_site_id
_symmetry_equiv_pos_as_xyz
1 x,y,z
_cell_length_a        10.4809000000
_cell_length_b         7.8397600000
_cell_length_c         7.7126500000
_cell_angle_alpha        90.0000
_cell_angle_beta        90.0000
_cell_angle_gamma        90.0000
_cell_formula_units_Z 1
loop_
_atom_site_label
_atom_site_type_symbol
_atom_site_fract_x
_atom_site_fract_y
_atom_site_fract_z
C1     C      0.02613000000000     0.18472000000000     0.22982000000000
C1     C      0.97387000000000     0.81528000000000     0.72982000000000
C1     C      0.47387000000000     0.68472000000000     0.72982000000000
C1     C      0.52613000000000     0.31528000000000     0.22982000000000
H1     H      0.92483000000000     0.20049000000000     0.25628000000000
H1     H      0.07517000000000     0.79951000000000     0.75628000000000
H1     H      0.57517000000000     0.70049000000000     0.75628000000000
H1     H      0.42483000000000     0.29951000000000     0.25628000000000
H2     H      0.09173000000000     0.25661000000000     0.31157000000000
H2     H      0.90827000000000     0.74339000000000     0.81157000000000
H2     H      0.40827000000000     0.75661000000000     0.81157000000000
H2     H      0.59173000000000     0.24339000000000     0.31157000000000
C2     C      0.06780000000000     0.07991000000000     0.10381000000000
C2     C      0.93220000000000     0.92009000000000     0.60381000000000
C2     C      0.43220000000000     0.57991000000000     0.60381000000000
C2     C      0.56780000000000     0.42009000000000     0.10381000000000
H3     H      0.00171000000000     0.00740000000000     0.02375000000000
H3     H      0.99829000000000     0.99260000000000     0.52375000000000
H3     H      0.49829000000000     0.50740000000000     0.52375000000000
H3     H      0.50171000000000     0.49260000000000     0.02375000000000
C3     C      0.20476000000000     0.05330000000000     0.06691000000000
C3     C      0.79524000000000     0.94670000000000     0.56691000000000
C3     C      0.29524000000000     0.55330000000000     0.56691000000000
C3     C      0.70476000000000     0.44670000000000     0.06691000000000
H4     H      0.27512000000000     0.12298000000000     0.14141000000000
H4     H      0.72488000000000     0.87702000000000     0.64141000000000
H4     H      0.22488000000000     0.62298000000000     0.64141000000000
H4     H      0.77512000000000     0.37702000000000     0.14141000000000
O1     O      0.24046000000000     0.95419000000000     0.95567000000000
O1     O      0.75954000000000     0.04581000000000     0.45567000000000
O1     O      0.25954000000000     0.45419000000000     0.45567000000000
O1     O      0.74046000000000     0.54581000000000     0.95567000000000
C1     C      0.47387000000000     0.18472000000000     0.72981000000000
C1     C      0.52613000000000     0.81528000000000     0.22981000000000
C1     C      0.02613000000000     0.68472000000000     0.22981000000000
C1     C      0.97387000000000     0.31528000000000     0.72981000000000
H1     H      0.57517000000000     0.20049000000000     0.75627000000000
H1     H      0.42483000000000     0.79951000000000     0.25627000000000
H1     H      0.92483000000000     0.70049000000000     0.25627000000000
H1     H      0.07517000000000     0.29951000000000     0.75627000000000
H2     H      0.40827000000000     0.25661000000000     0.81157000000000
H2     H      0.59173000000000     0.74339000000000     0.31157000000000
H2     H      0.09173000000000     0.75661000000000     0.31157000000000
H2     H      0.90827000000000     0.24339000000000     0.81157000000000
C2     C      0.43220000000000     0.07991000000000     0.60381000000000
C2     C      0.56780000000000     0.92009000000000     0.10381000000000
C2     C      0.06780000000000     0.57991000000000     0.10381000000000
C2     C      0.93220000000000     0.42009000000000     0.60381000000000
H3     H      0.49829000000000     0.00739000000000     0.52375000000000
H3     H      0.50171000000000     0.99261000000000     0.02375000000000
H3     H      0.00171000000000     0.50739000000000     0.02375000000000
H3     H      0.99829000000000     0.49261000000000     0.52375000000000
C3     C      0.29524000000000     0.05330000000000     0.56691000000000
C3     C      0.70476000000000     0.94670000000000     0.06691000000000
C3     C      0.20476000000000     0.55330000000000     0.06691000000000
C3     C      0.79524000000000     0.44670000000000     0.56691000000000
H4     H      0.22488000000000     0.12298000000000     0.64141000000000
H4     H      0.77512000000000     0.87702000000000     0.14141000000000
H4     H      0.27512000000000     0.62298000000000     0.14141000000000
H4     H      0.72488000000000     0.37702000000000     0.64141000000000
O1     O      0.25954000000000     0.95419000000000     0.45567000000000
O1     O      0.74046000000000     0.04581000000000     0.95567000000000
O1     O      0.24046000000000     0.45419000000000     0.95567000000000
O1     O      0.75954000000000     0.54581000000000     0.45567000000000
