data_default
_cell_volume           323.922780
_symmetry_space_group_name_H-M 'P 1'
_symmetry_Int_Tables_number 1
loop_
_symmetry_equiv_pos_site_id
_symmetry_equiv_pos_as_xyz
1 x,y,z
_cell_length_a         6.5255000000
_cell_length_b         5.2775000000
_cell_length_c         9.9271000000
_cell_angle_alpha        90.0000
_cell_angle_beta       108.6490
_cell_angle_gamma        90.0000
_cell_formula_units_Z 1
loop_
_atom_site_label
_atom_site_type_symbol
_atom_site_fract_x
_atom_site_fract_y
_atom_site_fract_z
O1     O      0.74976000000000     0.77794000000000     0.27656000000000
O1     O      0.25024000000000     0.27794000000000     0.22344000000000
O1     O      0.25024000000000     0.22206000000000     0.72344000000000
O1     O      0.74976000000000     0.72206000000000     0.77656000000000
C1     C      0.74183000000000     0.23674000000000     0.01077000000000
C1     C      0.25817000000000     0.73674000000000     0.48923000000000
C1     C      0.25817000000000     0.76326000000000     0.98923000000000
C1     C      0.74183000000000     0.26326000000000     0.51077000000000
C2     C      0.70758000000000     0.13837000000000     0.12588000000000
C2     C      0.29242000000000     0.63837000000000     0.37412000000000
C2     C      0.29242000000000     0.86163000000000     0.87412000000000
C2     C      0.70758000000000     0.36163000000000     0.62588000000000
C3     C      0.77619000000000     0.87789000000000     0.17306000000000
C3     C      0.22381000000000     0.37789000000000     0.32694000000000
C3     C      0.22381000000000     0.12211000000000     0.82694000000000
C3     C      0.77619000000000     0.62211000000000     0.67306000000000
H1     H      0.63592000000000     0.23443000000000     0.18355000000000
H1     H      0.36408000000000     0.73443000000000     0.31645000000000
H1     H      0.36408000000000     0.76557000000000     0.81645000000000
H1     H      0.63592000000000     0.26557000000000     0.68355000000000
H2     H      0.69730000000000     0.41026000000000     0.97751000000000
H2     H      0.30270000000000     0.91026000000000     0.52249000000000
H2     H      0.30270000000000     0.58974000000000     0.02249000000000
H2     H      0.69730000000000     0.08974000000000     0.47751000000000
H3     H      0.81394000000000     0.13702000000000     0.95466000000000
H3     H      0.18606000000000     0.63702000000000     0.54534000000000
H3     H      0.18606000000000     0.86298000000000     0.04534000000000
H3     H      0.81394000000000     0.36298000000000     0.45466000000000
H4     H      0.84907000000000     0.78446000000000     0.11157000000000
H4     H      0.15093000000000     0.28446000000000     0.38843000000000
H4     H      0.15093000000000     0.21554000000000     0.88843000000000
H4     H      0.84907000000000     0.71554000000000     0.61157000000000
