data_default
_cell_volume           179.939712
_symmetry_space_group_name_H-M 'P 1'
_symmetry_Int_Tables_number 1
loop_
_symmetry_equiv_pos_site_id
_symmetry_equiv_pos_as_xyz
1 x,y,z
_cell_length_a        12.1440000000
_cell_length_b         4.9250000000
_cell_length_c         5.1260000000
_cell_angle_alpha       135.9300
_cell_angle_beta        64.8440
_cell_angle_gamma       122.2210
_cell_formula_units_Z 1
loop_
_atom_site_label
_atom_site_type_symbol
_atom_site_fract_x
_atom_site_fract_y
_atom_site_fract_z
C1     C      0.66254000000000     0.01440000000000     0.15408000000000
C1     C      0.33746000000000     0.98560000000000     0.84592000000000
C2     C      0.70422000000000     0.93254000000000     0.28582000000000
C2     C      0.29578000000000     0.06746000000000     0.71418000000000
C3     C      0.84309000000000     0.05061000000000     0.27591000000000
C3     C      0.15691000000000     0.94939000000000     0.72409000000000
O4     O      0.89003000000000     0.98897000000000     0.38913000000000
O4     O      0.10997000000000     0.01103000000000     0.61087000000000
H5     H      0.56010000000000     0.93269000000000     0.15522000000000
H5     H      0.43990000000000     0.06731000000000     0.84478000000000
H6     H      0.73247000000000     0.16905000000000     0.03979000000000
H6     H      0.26753000000000     0.83095000000000     0.96021000000000
H7     H      0.63902000000000     0.77885000000000     0.40330000000000
H7     H      0.36098000000000     0.22115000000000     0.59670000000000
H8     H      0.90421000000000     0.20311000000000     0.15609000000000
H8     H      0.09579000000000     0.79689000000000     0.84391000000000
