data_default
_cell_volume           673.901604
_symmetry_space_group_name_H-M 'P 1'
_symmetry_Int_Tables_number 1
loop_
_symmetry_equiv_pos_site_id
_symmetry_equiv_pos_as_xyz
1 x,y,z
_cell_length_a         8.1224700000
_cell_length_b         6.8604300000
_cell_length_c        12.0936400000
_cell_angle_alpha        90.0000
_cell_angle_beta        90.0000
_cell_angle_gamma        90.0000
_cell_formula_units_Z 1
loop_
_atom_site_label
_atom_site_type_symbol
_atom_site_fract_x
_atom_site_fract_y
_atom_site_fract_z
C1     C      0.60015000000000     0.28046000000000     0.97377000000000
C1     C      0.39985000000000     0.71954000000000     0.02623000000000
C1     C      0.89985000000000     0.71954000000000     0.47377000000000
C1     C      0.10015000000000     0.21954000000000     0.02623000000000
C1     C      0.39985000000000     0.78046000000000     0.52623000000000
C1     C      0.89985000000000     0.78046000000000     0.97377000000000
C1     C      0.10015000000000     0.28046000000000     0.52623000000000
C1     C      0.60015000000000     0.21954000000000     0.47377000000000
H2     H      0.48579000000000     0.22088000000000     0.00808000000000
H2     H      0.51421000000000     0.77912000000000     0.99192000000000
H2     H      0.01421000000000     0.77912000000000     0.50808000000000
H2     H      0.98579000000000     0.27912000000000     0.99192000000000
H2     H      0.51421000000000     0.72088000000000     0.49192000000000
H2     H      0.01421000000000     0.72088000000000     0.00808000000000
H2     H      0.98579000000000     0.22088000000000     0.49192000000000
H2     H      0.48579000000000     0.27912000000000     0.50808000000000
O3     O      0.68664000000000     0.38337000000000     0.02758000000000
O3     O      0.31336000000000     0.61663000000000     0.97242000000000
O3     O      0.81336000000000     0.61663000000000     0.52758000000000
O3     O      0.18664000000000     0.11663000000000     0.97242000000000
O3     O      0.31336000000000     0.88337000000000     0.47242000000000
O3     O      0.81336000000000     0.88337000000000     0.02758000000000
O3     O      0.18664000000000     0.38337000000000     0.47242000000000
O3     O      0.68664000000000     0.11663000000000     0.52758000000000
C4     C      0.63623000000000     0.22344000000000     0.85840000000000
C4     C      0.36377000000000     0.77656000000000     0.14160000000000
C4     C      0.86377000000000     0.77656000000000     0.35840000000000
C4     C      0.13623000000000     0.27656000000000     0.14160000000000
C4     C      0.36377000000000     0.72344000000000     0.64160000000000
C4     C      0.86377000000000     0.72344000000000     0.85840000000000
C4     C      0.13623000000000     0.22344000000000     0.64160000000000
C4     C      0.63623000000000     0.27656000000000     0.35840000000000
H5     H      0.74795000000000     0.28041000000000     0.82318000000000
H5     H      0.25205000000000     0.71959000000000     0.17682000000000
H5     H      0.75205000000000     0.71959000000000     0.32318000000000
H5     H      0.24795000000000     0.21959000000000     0.17682000000000
H5     H      0.25205000000000     0.78041000000000     0.67682000000000
H5     H      0.75205000000000     0.78041000000000     0.82318000000000
H5     H      0.24795000000000     0.28041000000000     0.67682000000000
H5     H      0.74795000000000     0.21959000000000     0.32318000000000
C6     C      0.53572000000000     0.10864000000000     0.80248000000000
C6     C      0.46428000000000     0.89136000000000     0.19752000000000
C6     C      0.96428000000000     0.89136000000000     0.30248000000000
C6     C      0.03572000000000     0.39136000000000     0.19752000000000
C6     C      0.46428000000000     0.60864000000000     0.69752000000000
C6     C      0.96428000000000     0.60864000000000     0.80248000000000
C6     C      0.03572000000000     0.10864000000000     0.69752000000000
C6     C      0.53572000000000     0.39136000000000     0.30248000000000
H7     H      0.56046000000000     0.06606000000000     0.71858000000000
H7     H      0.43954000000000     0.93394000000000     0.28142000000000
H7     H      0.93954000000000     0.93394000000000     0.21858000000000
H7     H      0.06046000000000     0.43394000000000     0.28142000000000
H7     H      0.43954000000000     0.56606000000000     0.78142000000000
H7     H      0.93954000000000     0.56606000000000     0.71858000000000
H7     H      0.06046000000000     0.06606000000000     0.78142000000000
H7     H      0.56046000000000     0.43394000000000     0.21858000000000
H8     H      0.42429000000000     0.05282000000000     0.83899000000000
H8     H      0.57571000000000     0.94718000000000     0.16101000000000
H8     H      0.07571000000000     0.94718000000000     0.33899000000000
H8     H      0.92429000000000     0.44718000000000     0.16101000000000
H8     H      0.57571000000000     0.55282000000000     0.66101000000000
H8     H      0.07571000000000     0.55282000000000     0.83899000000000
H8     H      0.92429000000000     0.05282000000000     0.66101000000000
H8     H      0.42429000000000     0.44718000000000     0.33899000000000
