data_default
_cell_volume           659.546037
_symmetry_space_group_name_H-M 'P 1'
_symmetry_Int_Tables_number 1
loop_
_symmetry_equiv_pos_site_id
_symmetry_equiv_pos_as_xyz
1 x,y,z
_cell_length_a         9.9761849151
_cell_length_b         6.9685526318
_cell_length_c         9.4871996488
_cell_angle_alpha        90.0000
_cell_angle_beta        90.0000
_cell_angle_gamma        90.0000
_cell_formula_units_Z 1
loop_
_atom_site_label
_atom_site_type_symbol
_atom_site_fract_x
_atom_site_fract_y
_atom_site_fract_z
C0_0   C      0.00605620185881     0.62598835710932     0.21124338465389
C0_0   C      0.49394379814119     0.37401164289068     0.71124338465389
C0_0   C      0.99394379814119     0.12598835710932     0.28875661534611
C0_0   C      0.50605620185881     0.87401164289068     0.78875661534611
C0_0   C      0.99394379814119     0.37401164289068     0.78875661534611
C0_0   C      0.50605620185881     0.62598835710932     0.28875661534611
C0_0   C      0.00605620185881     0.87401164289068     0.71124338465389
C0_0   C      0.49394379814119     0.12598835710932     0.21124338465389
C1_0   C      0.13291572963163     0.58245323785873     0.17605546702673
C1_0   C      0.36708427036837     0.41754676214127     0.67605546702673
C1_0   C      0.86708427036837     0.08245323785873     0.32394453297327
C1_0   C      0.63291572963163     0.91754676214127     0.82394453297327
C1_0   C      0.86708427036837     0.41754676214127     0.82394453297327
C1_0   C      0.63291572963163     0.58245323785873     0.32394453297327
C1_0   C      0.13291572963163     0.91754676214127     0.67605546702673
C1_0   C      0.36708427036837     0.08245323785873     0.17605546702673
H4_0   H      0.96237844559689     0.58300705766657     0.31175118985674
H4_0   H      0.53762155440311     0.41699294233343     0.81175118985674
H4_0   H      0.03762155440311     0.08300705766657     0.18824881014326
H4_0   H      0.46237844559689     0.91699294233343     0.68824881014326
H4_0   H      0.03762155440311     0.41699294233343     0.68824881014326
H4_0   H      0.46237844559689     0.58300705766657     0.18824881014326
H4_0   H      0.96237844559689     0.91699294233343     0.81175118985674
H4_0   H      0.53762155440311     0.08300705766657     0.31175118985674
H5_0   H      0.94198684372997     0.70743897989376     0.13942218385886
H5_0   H      0.55801315627003     0.29256102010624     0.63942218385886
H5_0   H      0.05801315627003     0.20743897989376     0.36057781614114
H5_0   H      0.44198684372997     0.79256102010624     0.86057781614114
H5_0   H      0.05801315627003     0.29256102010624     0.86057781614114
H5_0   H      0.44198684372997     0.70743897989376     0.36057781614114
H5_0   H      0.94198684372997     0.79256102010624     0.63942218385886
H5_0   H      0.55801315627003     0.20743897989376     0.13942218385886
C2_0   C      0.18652073104277     0.64346931464154     0.04036314157829
C2_0   C      0.31347926895723     0.35653068535846     0.54036314157829
C2_0   C      0.81347926895723     0.14346931464154     0.45963685842171
C2_0   C      0.68652073104277     0.85653068535846     0.95963685842171
C2_0   C      0.81347926895723     0.35653068535846     0.95963685842171
C2_0   C      0.68652073104277     0.64346931464154     0.45963685842171
C2_0   C      0.18652073104277     0.85653068535846     0.54036314157829
C2_0   C      0.31347926895723     0.14346931464154     0.04036314157829
H6_0   H      0.19806062629023     0.50141798893438     0.24666980546117
H6_0   H      0.30193937370977     0.49858201106562     0.74666980546117
H6_0   H      0.80193937370977     0.00141798893438     0.25333019453883
H6_0   H      0.69806062629023     0.99858201106562     0.75333019453883
H6_0   H      0.80193937370977     0.49858201106562     0.75333019453883
H6_0   H      0.69806062629023     0.50141798893438     0.25333019453883
H6_0   H      0.19806062629023     0.99858201106562     0.74666980546117
H6_0   H      0.30193937370977     0.00141798893438     0.24666980546117
O3_0   O      0.30142990466988     0.60885672216527     0.99896346719195
O3_0   O      0.19857009533012     0.39114327783473     0.49896346719195
O3_0   O      0.69857009533012     0.10885672216527     0.50103653280805
O3_0   O      0.80142990466988     0.89114327783473     0.00103653280805
O3_0   O      0.69857009533012     0.39114327783473     0.00103653280805
O3_0   O      0.80142990466988     0.60885672216527     0.50103653280805
O3_0   O      0.30142990466988     0.89114327783473     0.49896346719195
O3_0   O      0.19857009533012     0.10885672216527     0.99896346719195
H7_0   H      0.11609598564326     0.72620100194785     0.97294698144887
H7_0   H      0.38390401435674     0.27379899805215     0.47294698144887
H7_0   H      0.88390401435674     0.22620100194785     0.52705301855113
H7_0   H      0.61609598564326     0.77379899805215     0.02705301855113
H7_0   H      0.88390401435674     0.27379899805215     0.02705301855113
H7_0   H      0.61609598564326     0.72620100194785     0.52705301855113
H7_0   H      0.11609598564326     0.77379899805215     0.47294698144887
H7_0   H      0.38390401435674     0.22620100194785     0.97294698144887
