data_default
_cell_volume           666.686835
_symmetry_space_group_name_H-M 'P 1'
_symmetry_Int_Tables_number 1
loop_
_symmetry_equiv_pos_site_id
_symmetry_equiv_pos_as_xyz
1 x,y,z
_cell_length_a         9.6973600000
_cell_length_b         9.9939400000
_cell_length_c         6.8791000000
_cell_angle_alpha        90.0000
_cell_angle_beta        90.0000
_cell_angle_gamma        90.0000
_cell_formula_units_Z 1
loop_
_atom_site_label
_atom_site_type_symbol
_atom_site_fract_x
_atom_site_fract_y
_atom_site_fract_z
C1     C      0.46033000000000     0.18156000000000     0.64610000000000
C1     C      0.53967000000000     0.81844000000000     0.35390000000000
C1     C      0.03967000000000     0.81844000000000     0.14610000000000
C1     C      0.96033000000000     0.31844000000000     0.35390000000000
C1     C      0.53967000000000     0.68156000000000     0.85390000000000
C1     C      0.03967000000000     0.68156000000000     0.64610000000000
C1     C      0.96033000000000     0.18156000000000     0.85390000000000
C1     C      0.46033000000000     0.31844000000000     0.14610000000000
H2     H      0.52169000000000     0.10656000000000     0.72389000000000
H2     H      0.47831000000000     0.89344000000000     0.27611000000000
H2     H      0.97831000000000     0.89344000000000     0.22389000000000
H2     H      0.02169000000000     0.39344000000000     0.27611000000000
H2     H      0.47831000000000     0.60656000000000     0.77611000000000
H2     H      0.97831000000000     0.60656000000000     0.72389000000000
H2     H      0.02169000000000     0.10656000000000     0.77611000000000
H2     H      0.52169000000000     0.39344000000000     0.22389000000000
O3     O      0.50251000000000     0.29220000000000     0.62283000000000
O3     O      0.49749000000000     0.70780000000000     0.37717000000000
O3     O      0.99749000000000     0.70780000000000     0.12283000000000
O3     O      0.00251000000000     0.20780000000000     0.37717000000000
O3     O      0.49749000000000     0.79220000000000     0.87717000000000
O3     O      0.99749000000000     0.79220000000000     0.62283000000000
O3     O      0.00251000000000     0.29220000000000     0.87717000000000
O3     O      0.50251000000000     0.20780000000000     0.12283000000000
C4     C      0.32488000000000     0.13456000000000     0.57498000000000
C4     C      0.67512000000000     0.86544000000000     0.42502000000000
C4     C      0.17512000000000     0.86544000000000     0.07498000000000
C4     C      0.82488000000000     0.36544000000000     0.42502000000000
C4     C      0.67512000000000     0.63456000000000     0.92502000000000
C4     C      0.17512000000000     0.63456000000000     0.57498000000000
C4     C      0.82488000000000     0.13456000000000     0.92502000000000
C4     C      0.32488000000000     0.36544000000000     0.07498000000000
H5     H      0.26305000000000     0.20668000000000     0.49823000000000
H5     H      0.73695000000000     0.79332000000000     0.50177000000000
H5     H      0.23695000000000     0.79332000000000     0.99823000000000
H5     H      0.76305000000000     0.29332000000000     0.50177000000000
H5     H      0.73695000000000     0.70668000000000     0.00177000000000
H5     H      0.23695000000000     0.70668000000000     0.49823000000000
H5     H      0.76305000000000     0.20668000000000     0.00177000000000
H5     H      0.26305000000000     0.29332000000000     0.99823000000000
C6     C      0.28321000000000     0.01046000000000     0.60498000000000
C6     C      0.71679000000000     0.98954000000000     0.39502000000000
C6     C      0.21679000000000     0.98954000000000     0.10498000000000
C6     C      0.78321000000000     0.48954000000000     0.39502000000000
C6     C      0.71679000000000     0.51046000000000     0.89502000000000
C6     C      0.21679000000000     0.51046000000000     0.60498000000000
C6     C      0.78321000000000     0.01046000000000     0.89502000000000
C6     C      0.28321000000000     0.48954000000000     0.10498000000000
H7     H      0.18500000000000     0.97499000000000     0.55407000000000
H7     H      0.81500000000000     0.02501000000000     0.44593000000000
H7     H      0.31500000000000     0.02501000000000     0.05407000000000
H7     H      0.68500000000000     0.52501000000000     0.44593000000000
H7     H      0.81500000000000     0.47499000000000     0.94593000000000
H7     H      0.31500000000000     0.47499000000000     0.55407000000000
H7     H      0.68500000000000     0.97499000000000     0.94593000000000
H7     H      0.18500000000000     0.52501000000000     0.05407000000000
H8     H      0.34641000000000     0.93946000000000     0.68214000000000
H8     H      0.65359000000000     0.06054000000000     0.31786000000000
H8     H      0.15359000000000     0.06054000000000     0.18214000000000
H8     H      0.84641000000000     0.56054000000000     0.31786000000000
H8     H      0.65359000000000     0.43946000000000     0.81786000000000
H8     H      0.15359000000000     0.43946000000000     0.68214000000000
H8     H      0.84641000000000     0.93946000000000     0.81786000000000
H8     H      0.34641000000000     0.56054000000000     0.18214000000000
