data_default
_cell_volume           630.468613
_symmetry_space_group_name_H-M 'P 1'
_symmetry_Int_Tables_number 1
loop_
_symmetry_equiv_pos_site_id
_symmetry_equiv_pos_as_xyz
1 x,y,z
_cell_length_a         8.7213000000
_cell_length_b         7.6293000000
_cell_length_c         9.4754000000
_cell_angle_alpha        90.0000
_cell_angle_beta        90.0000
_cell_angle_gamma        90.0000
_cell_formula_units_Z 1
loop_
_atom_site_label
_atom_site_type_symbol
_atom_site_fract_x
_atom_site_fract_y
_atom_site_fract_z
O7     O      0.52189000000000     0.41901000000000     0.27130000000000
O7     O      0.97811000000000     0.58099000000000     0.77130000000000
O7     O      0.02189000000000     0.08099000000000     0.72870000000000
O7     O      0.47811000000000     0.91901000000000     0.22870000000000
O7     O      0.47811000000000     0.58099000000000     0.72870000000000
O7     O      0.02189000000000     0.41901000000000     0.22870000000000
O7     O      0.97811000000000     0.91901000000000     0.27130000000000
O7     O      0.52189000000000     0.08099000000000     0.77130000000000
C1     C      0.38999000000000     0.31845000000000     0.06666000000000
C1     C      0.11001000000000     0.68155000000000     0.56666000000000
C1     C      0.88999000000000     0.18155000000000     0.93334000000000
C1     C      0.61001000000000     0.81845000000000     0.43334000000000
C1     C      0.61001000000000     0.68155000000000     0.93334000000000
C1     C      0.88999000000000     0.31845000000000     0.43334000000000
C1     C      0.11001000000000     0.81845000000000     0.06666000000000
C1     C      0.38999000000000     0.18155000000000     0.56666000000000
C2     C      0.27701000000000     0.34971000000000     0.97449000000000
C2     C      0.22299000000000     0.65029000000000     0.47449000000000
C2     C      0.77701000000000     0.15029000000000     0.02551000000000
C2     C      0.72299000000000     0.84971000000000     0.52551000000000
C2     C      0.72299000000000     0.65029000000000     0.02551000000000
C2     C      0.77701000000000     0.34971000000000     0.52551000000000
C2     C      0.22299000000000     0.84971000000000     0.97449000000000
C2     C      0.27701000000000     0.15029000000000     0.47449000000000
C6     C      0.42118000000000     0.43999000000000     0.18426000000000
C6     C      0.07882000000000     0.56001000000000     0.68426000000000
C6     C      0.92118000000000     0.06001000000000     0.81574000000000
C6     C      0.57882000000000     0.93999000000000     0.31574000000000
C6     C      0.57882000000000     0.56001000000000     0.81574000000000
C6     C      0.92118000000000     0.43999000000000     0.31574000000000
C6     C      0.07882000000000     0.93999000000000     0.18426000000000
C6     C      0.42118000000000     0.06001000000000     0.68426000000000
H3     H      0.46329000000000     0.20346000000000     0.05942000000000
H3     H      0.03671000000000     0.79654000000000     0.55942000000000
H3     H      0.96329000000000     0.29654000000000     0.94058000000000
H3     H      0.53671000000000     0.70346000000000     0.44058000000000
H3     H      0.53671000000000     0.79654000000000     0.94058000000000
H3     H      0.96329000000000     0.20346000000000     0.44058000000000
H3     H      0.03671000000000     0.70346000000000     0.05942000000000
H3     H      0.46329000000000     0.29654000000000     0.55942000000000
H4     H      0.20508000000000     0.46577000000000     0.98387000000000
H4     H      0.29492000000000     0.53423000000000     0.48387000000000
H4     H      0.70508000000000     0.03423000000000     0.01613000000000
H4     H      0.79492000000000     0.96577000000000     0.51613000000000
H4     H      0.79492000000000     0.53423000000000     0.01613000000000
H4     H      0.70508000000000     0.46577000000000     0.51613000000000
H4     H      0.29492000000000     0.96577000000000     0.98387000000000
H4     H      0.20508000000000     0.03423000000000     0.48387000000000
H5     H      0.25199000000000     0.26211000000000     0.88715000000000
H5     H      0.24801000000000     0.73789000000000     0.38715000000000
H5     H      0.75199000000000     0.23789000000000     0.11285000000000
H5     H      0.74801000000000     0.76211000000000     0.61285000000000
H5     H      0.74801000000000     0.73789000000000     0.11285000000000
H5     H      0.75199000000000     0.26211000000000     0.61285000000000
H5     H      0.24801000000000     0.76211000000000     0.88715000000000
H5     H      0.25199000000000     0.23789000000000     0.38715000000000
H8     H      0.34401000000000     0.55621000000000     0.18843000000000
H8     H      0.15599000000000     0.44379000000000     0.68843000000000
H8     H      0.84401000000000     0.94379000000000     0.81157000000000
H8     H      0.65599000000000     0.05621000000000     0.31157000000000
H8     H      0.65599000000000     0.44379000000000     0.81157000000000
H8     H      0.84401000000000     0.55621000000000     0.31157000000000
H8     H      0.15599000000000     0.05621000000000     0.18843000000000
H8     H      0.34401000000000     0.94379000000000     0.68843000000000
