data_default
_cell_volume           697.854204
_symmetry_space_group_name_H-M 'P 1'
_symmetry_Int_Tables_number 1
loop_
_symmetry_equiv_pos_site_id
_symmetry_equiv_pos_as_xyz
1 x,y,z
_cell_length_a         7.9565800000
_cell_length_b         7.0920100000
_cell_length_c        12.3671300000
_cell_angle_alpha        90.0000
_cell_angle_beta        90.0000
_cell_angle_gamma        90.0000
_cell_formula_units_Z 1
loop_
_atom_site_label
_atom_site_type_symbol
_atom_site_fract_x
_atom_site_fract_y
_atom_site_fract_z
C1     C      0.39088500000000     0.79132100000000     0.52746700000000
C1     C      0.89088500000000     0.70867900000000     0.47253300000000
C1     C      0.60911500000000     0.29132100000000     0.97253300000000
C1     C      0.10911500000000     0.20867900000000     0.02746700000000
C1     C      0.60911500000000     0.20867900000000     0.47253300000000
C1     C      0.10911500000000     0.29132100000000     0.52746700000000
C1     C      0.39088500000000     0.70867900000000     0.02746700000000
C1     C      0.89088500000000     0.79132100000000     0.97253300000000
O2     O      0.30461100000000     0.90070100000000     0.47810700000000
O2     O      0.80461100000000     0.59929900000000     0.52189300000000
O2     O      0.69538900000000     0.40070100000000     0.02189300000000
O2     O      0.19538900000000     0.09929900000000     0.97810700000000
O2     O      0.69538900000000     0.09929900000000     0.52189300000000
O2     O      0.19538900000000     0.40070100000000     0.47810700000000
O2     O      0.30461100000000     0.59929900000000     0.97810700000000
O2     O      0.80461100000000     0.90070100000000     0.02189300000000
H3     H      0.49413900000000     0.71847800000000     0.48748700000000
H3     H      0.99413900000000     0.78152200000000     0.51251300000000
H3     H      0.50586100000000     0.21847800000000     0.01251300000000
H3     H      0.00586100000000     0.28152200000000     0.98748700000000
H3     H      0.50586100000000     0.28152200000000     0.51251300000000
H3     H      0.00586100000000     0.21847800000000     0.48748700000000
H3     H      0.49413900000000     0.78152200000000     0.98748700000000
H3     H      0.99413900000000     0.71847800000000     0.01251300000000
C4     C      0.36652000000000     0.74826600000000     0.64233500000000
C4     C      0.86652000000000     0.75173400000000     0.35766500000000
C4     C      0.63348000000000     0.24826600000000     0.85766500000000
C4     C      0.13348000000000     0.25173400000000     0.14233500000000
C4     C      0.63348000000000     0.25173400000000     0.35766500000000
C4     C      0.13348000000000     0.24826600000000     0.64233500000000
C4     C      0.36652000000000     0.75173400000000     0.14233500000000
C4     C      0.86652000000000     0.74826600000000     0.85766500000000
H5     H      0.26282400000000     0.82168400000000     0.67973800000000
H5     H      0.76282400000000     0.67831600000000     0.32026200000000
H5     H      0.73717600000000     0.32168400000000     0.82026200000000
H5     H      0.23717600000000     0.17831600000000     0.17973800000000
H5     H      0.73717600000000     0.17831600000000     0.32026200000000
H5     H      0.23717600000000     0.32168400000000     0.67973800000000
H5     H      0.26282400000000     0.67831600000000     0.17973800000000
H5     H      0.76282400000000     0.82168400000000     0.82026200000000
C6     C      0.46256300000000     0.62891000000000     0.69863000000000
C6     C      0.96256300000000     0.87109000000000     0.30137000000000
C6     C      0.53743700000000     0.12891000000000     0.80137000000000
C6     C      0.03743700000000     0.37109000000000     0.19863000000000
C6     C      0.53743700000000     0.37109000000000     0.30137000000000
C6     C      0.03743700000000     0.12891000000000     0.69863000000000
C6     C      0.46256300000000     0.87109000000000     0.19863000000000
C6     C      0.96256300000000     0.62891000000000     0.80137000000000
H7     H      0.44067500000000     0.60028300000000     0.78327500000000
H7     H      0.94067500000000     0.89971700000000     0.21672500000000
H7     H      0.55932500000000     0.10028300000000     0.71672500000000
H7     H      0.05932500000000     0.39971700000000     0.28327500000000
H7     H      0.55932500000000     0.39971700000000     0.21672500000000
H7     H      0.05932500000000     0.10028300000000     0.78327500000000
H7     H      0.44067500000000     0.89971700000000     0.28327500000000
H7     H      0.94067500000000     0.60028300000000     0.71672500000000
H8     H      0.56748200000000     0.55442700000000     0.66292000000000
H8     H      0.06748200000000     0.94557300000000     0.33708000000000
H8     H      0.43251800000000     0.05442700000000     0.83708000000000
H8     H      0.93251800000000     0.44557300000000     0.16292000000000
H8     H      0.43251800000000     0.44557300000000     0.33708000000000
H8     H      0.93251800000000     0.05442700000000     0.66292000000000
H8     H      0.56748200000000     0.94557300000000     0.16292000000000
H8     H      0.06748200000000     0.55442700000000     0.83708000000000
