data_default
_cell_volume           330.431031
_symmetry_space_group_name_H-M 'P 1'
_symmetry_Int_Tables_number 1
loop_
_symmetry_equiv_pos_site_id
_symmetry_equiv_pos_as_xyz
1 x,y,z
_cell_length_a        10.5678000000
_cell_length_b         3.9464000000
_cell_length_c         7.9231000000
_cell_angle_alpha        90.0000
_cell_angle_beta        90.0000
_cell_angle_gamma        90.0000
_cell_formula_units_Z 1
loop_
_atom_site_label
_atom_site_type_symbol
_atom_site_fract_x
_atom_site_fract_y
_atom_site_fract_z
H1     H      0.06379000000000     0.41621000000000     0.99298000000000
H1     H      0.93621000000000     0.58379000000000     0.49298000000000
H1     H      0.43621000000000     0.41621000000000     0.49298000000000
H1     H      0.56379000000000     0.58379000000000     0.99298000000000
C2     C      0.96644000000000     0.36663000000000     0.02634000000000
C2     C      0.03356000000000     0.63337000000000     0.52634000000000
C2     C      0.53356000000000     0.36663000000000     0.52634000000000
C2     C      0.46644000000000     0.63337000000000     0.02634000000000
C3     C      0.93469000000000     0.15907000000000     0.15350000000000
C3     C      0.06531000000000     0.84093000000000     0.65350000000000
C3     C      0.56531000000000     0.15907000000000     0.65350000000000
C3     C      0.43469000000000     0.84093000000000     0.15350000000000
H4     H      0.89429000000000     0.49248000000000     0.95223000000000
H4     H      0.10571000000000     0.50752000000000     0.45223000000000
H4     H      0.60571000000000     0.49248000000000     0.45223000000000
H4     H      0.39429000000000     0.50752000000000     0.95223000000000
H5     H      0.00469000000000     0.02977000000000     0.22963000000000
H5     H      0.99531000000000     0.97023000000000     0.72963000000000
H5     H      0.49531000000000     0.02977000000000     0.72963000000000
H5     H      0.50469000000000     0.97023000000000     0.22963000000000
C6     C      0.80080000000000     0.09860000000000     0.19495000000000
C6     C      0.19920000000000     0.90140000000000     0.69495000000000
C6     C      0.69920000000000     0.09860000000000     0.69495000000000
C6     C      0.30080000000000     0.90140000000000     0.19495000000000
O7     O      0.76498000000000     0.91230000000000     0.30924000000000
O7     O      0.23502000000000     0.08770000000000     0.80924000000000
O7     O      0.73502000000000     0.91230000000000     0.80924000000000
O7     O      0.26498000000000     0.08770000000000     0.30924000000000
H8     H      0.73235000000000     0.23579000000000     0.11425000000000
H8     H      0.26765000000000     0.76421000000000     0.61425000000000
H8     H      0.76765000000000     0.23579000000000     0.61425000000000
H8     H      0.23235000000000     0.76421000000000     0.11425000000000
