data_default
_cell_volume           310.704362
_symmetry_space_group_name_H-M 'P 1'
_symmetry_Int_Tables_number 1
loop_
_symmetry_equiv_pos_site_id
_symmetry_equiv_pos_as_xyz
1 x,y,z
_cell_length_a        13.8937000000
_cell_length_b         7.8794100000
_cell_length_c         6.9405300000
_cell_angle_alpha       151.7460
_cell_angle_beta       119.9720
_cell_angle_gamma        61.9162
_cell_formula_units_Z 1
loop_
_atom_site_label
_atom_site_type_symbol
_atom_site_fract_x
_atom_site_fract_y
_atom_site_fract_z
C1     C      0.05151000000000     0.05745000000000     0.88367000000000
C1     C      0.94849000000000     0.94255000000000     0.11633000000000
H1     H      0.96343000000000     0.00926000000000     0.74899000000000
H1     H      0.03657000000000     0.99074000000000     0.25101000000000
H2     H      0.07940000000000     0.24764000000000     0.20713000000000
H2     H      0.92060000000000     0.75236000000000     0.79287000000000
C2     C      0.12217000000000     0.89090000000000     0.66008000000000
C2     C      0.87783000000000     0.10910000000000     0.33992000000000
H3     H      0.09325000000000     0.70178000000000     0.33698000000000
H3     H      0.90675000000000     0.29822000000000     0.66302000000000
C3     C      0.24278000000000     0.94509000000000     0.82601000000000
C3     C      0.75722000000000     0.05491000000000     0.17399000000000
H4     H      0.29307000000000     0.80046000000000     0.62368000000000
H4     H      0.70693000000000     0.19954000000000     0.37632000000000
O1     O      0.28793000000000     0.14239000000000     0.17887000000000
O1     O      0.71207000000000     0.85761000000000     0.82113000000000
C1     C      0.44849000000000     0.44249000000000     0.16569000000000
C1     C      0.55151000000000     0.55751000000000     0.83431000000000
H1     H      0.53657000000000     0.49067000000000     0.30356000000000
H1     H      0.46343000000000     0.50933000000000     0.69644000000000
H2     H      0.42061000000000     0.25230000000000     0.05300000000000
H2     H      0.57939000000000     0.74770000000000     0.94700000000000
C2     C      0.37783000000000     0.60903000000000     0.13387000000000
C2     C      0.62217000000000     0.39097000000000     0.86613000000000
H3     H      0.40675000000000     0.79814000000000     0.24686000000000
H3     H      0.59325000000000     0.20186000000000     0.75314000000000
C3     C      0.25722000000000     0.55485000000000     0.95021000000000
C3     C      0.74278000000000     0.44515000000000     0.04979000000000
H4     H      0.20692000000000     0.69948000000000     0.93655000000000
H4     H      0.79308000000000     0.30052000000000     0.06345000000000
O1     O      0.21207000000000     0.35756000000000     0.81819000000000
O1     O      0.78793000000000     0.64244000000000     0.18181000000000
