data_default
_cell_volume           663.299322
_symmetry_space_group_name_H-M 'P 1'
_symmetry_Int_Tables_number 1
loop_
_symmetry_equiv_pos_site_id
_symmetry_equiv_pos_as_xyz
1 x,y,z
_cell_length_a         7.0438000000
_cell_length_b         6.8684000000
_cell_length_c        13.7103000000
_cell_angle_alpha        90.0000
_cell_angle_beta        90.0000
_cell_angle_gamma        90.0000
_cell_formula_units_Z 1
loop_
_atom_site_label
_atom_site_type_symbol
_atom_site_fract_x
_atom_site_fract_y
_atom_site_fract_z
C1     C      0.53385000000000     0.69196000000000     0.13108000000000
C1     C      0.96615000000000     0.30804000000000     0.63108000000000
C1     C      0.46615000000000     0.19196000000000     0.36892000000000
C1     C      0.03385000000000     0.80804000000000     0.86892000000000
C1     C      0.46615000000000     0.30804000000000     0.86892000000000
C1     C      0.03385000000000     0.69196000000000     0.36892000000000
C1     C      0.53385000000000     0.80804000000000     0.63108000000000
C1     C      0.96615000000000     0.19196000000000     0.13108000000000
H2     H      0.70461000000000     0.90088000000000     0.05770000000000
H2     H      0.79539000000000     0.09912000000000     0.55770000000000
H2     H      0.29539000000000     0.40088000000000     0.44230000000000
H2     H      0.20461000000000     0.59912000000000     0.94230000000000
H2     H      0.29539000000000     0.09912000000000     0.94230000000000
H2     H      0.20461000000000     0.90088000000000     0.44230000000000
H2     H      0.70461000000000     0.59912000000000     0.55770000000000
H2     H      0.79539000000000     0.40088000000000     0.05770000000000
O3     O      0.55025000000000     0.76608000000000     0.96341000000000
O3     O      0.94975000000000     0.23392000000000     0.46341000000000
O3     O      0.44975000000000     0.26608000000000     0.53659000000000
O3     O      0.05025000000000     0.73392000000000     0.03659000000000
O3     O      0.44975000000000     0.23392000000000     0.03659000000000
O3     O      0.05025000000000     0.76608000000000     0.53659000000000
O3     O      0.55025000000000     0.73392000000000     0.46341000000000
O3     O      0.94975000000000     0.26608000000000     0.96341000000000
C4     C      0.60412000000000     0.79701000000000     0.04418000000000
C4     C      0.89588000000000     0.20299000000000     0.54418000000000
C4     C      0.39588000000000     0.29701000000000     0.45582000000000
C4     C      0.10412000000000     0.70299000000000     0.95582000000000
C4     C      0.39588000000000     0.20299000000000     0.95582000000000
C4     C      0.10412000000000     0.79701000000000     0.45582000000000
C4     C      0.60412000000000     0.70299000000000     0.54418000000000
C4     C      0.89588000000000     0.29701000000000     0.04418000000000
H5     H      0.43325000000000     0.58748000000000     0.11904000000000
H5     H      0.06675000000000     0.41252000000000     0.61904000000000
H5     H      0.56675000000000     0.08748000000000     0.38096000000000
H5     H      0.93325000000000     0.91252000000000     0.88096000000000
H5     H      0.56675000000000     0.41252000000000     0.88096000000000
H5     H      0.93325000000000     0.58748000000000     0.38096000000000
H5     H      0.43325000000000     0.91252000000000     0.61904000000000
H5     H      0.06675000000000     0.08748000000000     0.11904000000000
C6     C      0.59875000000000     0.73233000000000     0.21916000000000
C6     C      0.90125000000000     0.26767000000000     0.71916000000000
C6     C      0.40125000000000     0.23233000000000     0.28084000000000
C6     C      0.09875000000000     0.76767000000000     0.78084000000000
C6     C      0.40125000000000     0.26767000000000     0.78084000000000
C6     C      0.09875000000000     0.73233000000000     0.28084000000000
C6     C      0.59875000000000     0.76767000000000     0.71916000000000
C6     C      0.90125000000000     0.23233000000000     0.21916000000000
H7     H      0.55136000000000     0.66077000000000     0.27981000000000
H7     H      0.94864000000000     0.33923000000000     0.77981000000000
H7     H      0.44864000000000     0.16077000000000     0.22019000000000
H7     H      0.05136000000000     0.83923000000000     0.72019000000000
H7     H      0.44864000000000     0.33923000000000     0.72019000000000
H7     H      0.05136000000000     0.66077000000000     0.22019000000000
H7     H      0.55136000000000     0.83923000000000     0.77981000000000
H7     H      0.94864000000000     0.16077000000000     0.27981000000000
H8     H      0.69938000000000     0.83731000000000     0.23002000000000
H8     H      0.80062000000000     0.16269000000000     0.73002000000000
H8     H      0.30062000000000     0.33731000000000     0.26998000000000
H8     H      0.19938000000000     0.66269000000000     0.76998000000000
H8     H      0.30062000000000     0.16269000000000     0.76998000000000
H8     H      0.19938000000000     0.83731000000000     0.26998000000000
H8     H      0.69938000000000     0.66269000000000     0.73002000000000
H8     H      0.80062000000000     0.33731000000000     0.23002000000000
