data_default
_cell_volume           313.974907
_symmetry_space_group_name_H-M 'P 1'
_symmetry_Int_Tables_number 1
loop_
_symmetry_equiv_pos_site_id
_symmetry_equiv_pos_as_xyz
1 x,y,z
_cell_length_a         5.1070000000
_cell_length_b         4.8130000000
_cell_length_c        13.7270000000
_cell_angle_alpha        90.0000
_cell_angle_beta       111.4800
_cell_angle_gamma        90.0000
_cell_formula_units_Z 1
loop_
_atom_site_label
_atom_site_type_symbol
_atom_site_fract_x
_atom_site_fract_y
_atom_site_fract_z
C1     C      0.61200000000000     0.57600000000000     0.87220000000000
C1     C      0.38800000000000     0.42400000000000     0.12780000000000
C1     C      0.38800000000000     0.07600000000000     0.62780000000000
C1     C      0.61200000000000     0.92400000000000     0.37220000000000
C2     C      0.74360000000000     0.32980000000000     0.89790000000000
C2     C      0.25640000000000     0.67020000000000     0.10210000000000
C2     C      0.25640000000000     0.82980000000000     0.60210000000000
C2     C      0.74360000000000     0.17020000000000     0.39790000000000
C3     C      0.96680000000000     0.25160000000000     0.85870000000000
C3     C      0.03320000000000     0.74840000000000     0.14130000000000
C3     C      0.03320000000000     0.75160000000000     0.64130000000000
C3     C      0.96680000000000     0.24840000000000     0.35870000000000
O4     O      0.09510000000000     0.03260000000000     0.87880000000000
O4     O      0.90490000000000     0.96740000000000     0.12120000000000
O4     O      0.90490000000000     0.53260000000000     0.62120000000000
O4     O      0.09510000000000     0.46740000000000     0.37880000000000
H5     H      0.44730000000000     0.63880000000000     0.89980000000000
H5     H      0.55270000000000     0.36120000000000     0.10020000000000
H5     H      0.55270000000000     0.13880000000000     0.60020000000000
H5     H      0.44730000000000     0.86120000000000     0.39980000000000
H6     H      0.66820000000000     0.72080000000000     0.82210000000000
H6     H      0.33180000000000     0.27920000000000     0.17790000000000
H6     H      0.33180000000000     0.22080000000000     0.67790000000000
H6     H      0.66820000000000     0.77920000000000     0.32210000000000
H7     H      0.69250000000000     0.18060000000000     0.94780000000000
H7     H      0.30750000000000     0.81940000000000     0.05220000000000
H7     H      0.30750000000000     0.68060000000000     0.55220000000000
H7     H      0.69250000000000     0.31940000000000     0.44780000000000
H8     H      0.01240000000000     0.40980000000000     0.80820000000000
H8     H      0.98760000000000     0.59020000000000     0.19180000000000
H8     H      0.98760000000000     0.90980000000000     0.69180000000000
H8     H      0.01240000000000     0.09020000000000     0.30820000000000
