data_default
_cell_volume           920.874771
_symmetry_space_group_name_H-M 'P 1'
_symmetry_Int_Tables_number 1
loop_
_symmetry_equiv_pos_site_id
_symmetry_equiv_pos_as_xyz
1 x,y,z
_cell_length_a         9.9667000000
_cell_length_b         8.8927000000
_cell_length_c        10.3900000000
_cell_angle_alpha        90.0000
_cell_angle_beta        90.0000
_cell_angle_gamma        90.0000
_cell_formula_units_Z 1
loop_
_atom_site_label
_atom_site_type_symbol
_atom_site_fract_x
_atom_site_fract_y
_atom_site_fract_z
H1     H      0.27277000000000     0.22216000000000     0.46873000000000
H1     H      0.72723000000000     0.77784000000000     0.96873000000000
H1     H      0.22723000000000     0.72216000000000     0.96873000000000
H1     H      0.77277000000000     0.27784000000000     0.46873000000000
O1     O      0.28764000000000     0.05373000000000     0.33786000000000
O1     O      0.71236000000000     0.94627000000000     0.83786000000000
O1     O      0.21236000000000     0.55373000000000     0.83786000000000
O1     O      0.78764000000000     0.44627000000000     0.33786000000000
H2     H      0.22676000000000     0.27317000000000     0.17258000000000
H2     H      0.77324000000000     0.72683000000000     0.67258000000000
H2     H      0.27324000000000     0.77317000000000     0.67258000000000
H2     H      0.72676000000000     0.22683000000000     0.17258000000000
H3     H      0.24469000000000     0.48502000000000     0.40420000000000
H3     H      0.75531000000000     0.51498000000000     0.90420000000000
H3     H      0.25531000000000     0.98502000000000     0.90420000000000
H3     H      0.74469000000000     0.01498000000000     0.40420000000000
H4     H      0.21041000000000     0.53905000000000     0.23637000000000
H4     H      0.78959000000000     0.46095000000000     0.73637000000000
H4     H      0.28959000000000     0.03905000000000     0.73637000000000
H4     H      0.71041000000000     0.96095000000000     0.23637000000000
C1     C      0.26919000000000     0.18500000000000     0.36749000000000
C1     C      0.73081000000000     0.81500000000000     0.86749000000000
C1     C      0.23081000000000     0.68500000000000     0.86749000000000
C1     C      0.76919000000000     0.31500000000000     0.36749000000000
C2     C      0.24008000000000     0.30850000000000     0.27147000000000
C2     C      0.75992000000000     0.69150000000000     0.77147000000000
C2     C      0.25992000000000     0.80850000000000     0.77147000000000
C2     C      0.74008000000000     0.19150000000000     0.27147000000000
C3     C      0.23127000000000     0.45044000000000     0.30505000000000
C3     C      0.76873000000000     0.54956000000000     0.80505000000000
C3     C      0.26873000000000     0.95044000000000     0.80505000000000
C3     C      0.73127000000000     0.04956000000000     0.30505000000000
