data_default
_cell_volume           163.508860
_symmetry_space_group_name_H-M 'P 1'
_symmetry_Int_Tables_number 1
loop_
_symmetry_equiv_pos_site_id
_symmetry_equiv_pos_as_xyz
1 x,y,z
_cell_length_a         3.9268326579
_cell_length_b         5.2613264422
_cell_length_c         8.0237051041
_cell_angle_alpha        90.0000
_cell_angle_beta        99.4795
_cell_angle_gamma        90.0000
_cell_formula_units_Z 1
loop_
_atom_site_label
_atom_site_type_symbol
_atom_site_fract_x
_atom_site_fract_y
_atom_site_fract_z
C0_0   C      0.60068068707533     0.06742796437597     0.92558314519761
C0_0   C      0.60068068707533     0.93257203562403     0.42558314519761
C1_0   C      0.84916431233537     0.11311791314274     0.05856837723368
C1_0   C      0.84916431233537     0.88688208685726     0.55856837723368
H4_0   H      0.51732882710225     0.87648438884790     0.88483180568880
H4_0   H      0.51732882710225     0.12351561115210     0.38483180568880
H5_0   H      0.46922904467503     0.22510285406345     0.85307202946554
H5_0   H      0.46922904467503     0.77489714593655     0.35307202946554
C2_0   C      0.93902216890526     0.37532097679366     0.10580191898022
C2_0   C      0.93902216890526     0.62467902320634     0.60580191898022
H6_0   H      0.98616401458707     0.96161755938377     0.13467850868438
H6_0   H      0.98616401458707     0.03838244061623     0.63467850868438
O3_0   O      0.15938483254546     0.44040102975077     0.22613927301997
O3_0   O      0.15938483254546     0.55959897024923     0.72613927301997
H7_0   H      0.79042553087423     0.52062171038124     0.02322162962981
H7_0   H      0.79042553087423     0.47937828961876     0.52322162962981
