data_default
_cell_volume           696.442873
_symmetry_space_group_name_H-M 'P 1'
_symmetry_Int_Tables_number 1
loop_
_symmetry_equiv_pos_site_id
_symmetry_equiv_pos_as_xyz
1 x,y,z
_cell_length_a         7.0399000000
_cell_length_b         9.7465000000
_cell_length_c        10.1501000000
_cell_angle_alpha        90.0000
_cell_angle_beta        90.0000
_cell_angle_gamma        90.0000
_cell_formula_units_Z 1
loop_
_atom_site_label
_atom_site_type_symbol
_atom_site_fract_x
_atom_site_fract_y
_atom_site_fract_z
CAR1   Ca     0.11292000000000     0.71470200000000     0.01028910000000
CAR1   Ca     0.61292000000000     0.78529800000000     0.98971090000000
CAR1   Ca     0.88708000000000     0.21470200000000     0.48971090000000
CAR1   Ca     0.38708000000000     0.28529800000000     0.51028910000000
CAR1   Ca     0.88708000000000     0.28529800000000     0.98971090000000
CAR1   Ca     0.38708000000000     0.21470200000000     0.01028910000000
CAR1   Ca     0.11292000000000     0.78529800000000     0.51028910000000
CAR1   Ca     0.61292000000000     0.71470200000000     0.48971090000000
CAR2   Ca     0.07665000000000     0.67647800000000     0.13469700000000
CAR2   Ca     0.57665000000000     0.82352200000000     0.86530300000000
CAR2   Ca     0.92335000000000     0.17647800000000     0.36530300000000
CAR2   Ca     0.42335000000000     0.32352200000000     0.63469700000000
CAR2   Ca     0.92335000000000     0.32352200000000     0.86530300000000
CAR2   Ca     0.42335000000000     0.17647800000000     0.13469700000000
CAR2   Ca     0.07665000000000     0.82352200000000     0.63469700000000
CAR2   Ca     0.57665000000000     0.67647800000000     0.36530300000000
CAR3   Ca     0.14307000000000     0.54287900000000     0.18425900000000
CAR3   Ca     0.64307000000000     0.95712100000000     0.81574100000000
CAR3   Ca     0.85693000000000     0.04287900000000     0.31574100000000
CAR3   Ca     0.35693000000000     0.45712100000000     0.68425900000000
CAR3   Ca     0.85693000000000     0.45712100000000     0.81574100000000
CAR3   Ca     0.35693000000000     0.04287900000000     0.18425900000000
CAR3   Ca     0.14307000000000     0.95712100000000     0.68425900000000
CAR3   Ca     0.64307000000000     0.54287900000000     0.31574100000000
HYD1   H      0.06611000000000     0.81199900000000     0.97108740000000
HYD1   H      0.56611000000000     0.68800100000000     0.02891260000000
HYD1   H      0.93389000000000     0.31199900000000     0.52891260000000
HYD1   H      0.43389000000000     0.18800100000000     0.47108740000000
HYD1   H      0.93389000000000     0.18800100000000     0.02891260000000
HYD1   H      0.43389000000000     0.31199900000000     0.97108740000000
HYD1   H      0.06611000000000     0.68800100000000     0.47108740000000
HYD1   H      0.56611000000000     0.81199900000000     0.52891260000000
HYD2   H      0.19140000000000     0.64811600000000     0.94449720000000
HYD2   H      0.69140000000000     0.85188400000000     0.05550280000000
HYD2   H      0.80860000000000     0.14811600000000     0.55550280000000
HYD2   H      0.30860000000000     0.35188400000000     0.44449720000000
HYD2   H      0.80860000000000     0.35188400000000     0.05550280000000
HYD2   H      0.30860000000000     0.14811600000000     0.94449720000000
HYD2   H      0.19140000000000     0.85188400000000     0.44449720000000
HYD2   H      0.69140000000000     0.64811600000000     0.55550280000000
HYD3   H      0.99860000000000     0.74087100000000     0.20263800000000
HYD3   H      0.49860000000000     0.75912900000000     0.79736200000000
HYD3   H      0.00140000000000     0.24087100000000     0.29736200000000
HYD3   H      0.50140000000000     0.25912900000000     0.70263800000000
HYD3   H      0.00140000000000     0.25912900000000     0.79736200000000
HYD3   H      0.50140000000000     0.24087100000000     0.20263800000000
HYD3   H      0.99860000000000     0.75912900000000     0.70263800000000
HYD3   H      0.49860000000000     0.74087100000000     0.29736200000000
HYD4   H      0.22222000000000     0.48030200000000     0.11167600000000
HYD4   H      0.72222000000000     0.01969800000000     0.88832400000000
HYD4   H      0.77778000000000     0.98030200000000     0.38832400000000
HYD4   H      0.27778000000000     0.51969800000000     0.61167600000000
HYD4   H      0.77778000000000     0.51969800000000     0.88832400000000
HYD4   H      0.27778000000000     0.98030200000000     0.11167600000000
HYD4   H      0.22222000000000     0.01969800000000     0.61167600000000
HYD4   H      0.72222000000000     0.48030200000000     0.38832400000000
OXY1   O      0.11513000000000     0.50129200000000     0.29664500000000
OXY1   O      0.61513000000000     0.99870800000000     0.70335500000000
OXY1   O      0.88487000000000     0.00129200000000     0.20335500000000
OXY1   O      0.38487000000000     0.49870800000000     0.79664500000000
OXY1   O      0.88487000000000     0.49870800000000     0.70335500000000
OXY1   O      0.38487000000000     0.00129200000000     0.29664500000000
OXY1   O      0.11513000000000     0.99870800000000     0.79664500000000
OXY1   O      0.61513000000000     0.50129200000000     0.20335500000000
