data_default
_cell_volume           361.316543
_symmetry_space_group_name_H-M 'P 1'
_symmetry_Int_Tables_number 1
loop_
_symmetry_equiv_pos_site_id
_symmetry_equiv_pos_as_xyz
1 x,y,z
_cell_length_a         9.3550000000
_cell_length_b         3.7800000000
_cell_length_c        12.8810000000
_cell_angle_alpha        90.0000
_cell_angle_beta        52.4890
_cell_angle_gamma        90.0000
_cell_formula_units_Z 1
loop_
_atom_site_label
_atom_site_type_symbol
_atom_site_fract_x
_atom_site_fract_y
_atom_site_fract_z
C1     C      0.18739000000000     0.63779000000000     0.16350000000000
C1     C      0.68739000000000     0.13779000000000     0.16350000000000
C1     C      0.81261000000000     0.63779000000000     0.83650000000000
C1     C      0.31261000000000     0.13779000000000     0.83650000000000
C2     C      0.01746000000000     0.63756000000000     0.20536000000000
C2     C      0.51746000000000     0.13756000000000     0.20536000000000
C2     C      0.98254000000000     0.63756000000000     0.79464000000000
C2     C      0.48254000000000     0.13756000000000     0.79464000000000
C3     C      0.87027000000000     0.63778000000000     0.34474000000000
C3     C      0.37027000000000     0.13778000000000     0.34474000000000
C3     C      0.12973000000000     0.63778000000000     0.65526000000000
C3     C      0.62973000000000     0.13778000000000     0.65526000000000
O4     O      0.71170000000000     0.63757000000000     0.39186000000000
O4     O      0.21170000000000     0.13757000000000     0.39186000000000
O4     O      0.28830000000000     0.63757000000000     0.60814000000000
O4     O      0.78830000000000     0.13757000000000     0.60814000000000
H5     H      0.30173000000000     0.63765000000000     0.06069000000000
H5     H      0.80173000000000     0.13765000000000     0.06069000000000
H5     H      0.69827000000000     0.63765000000000     0.93931000000000
H5     H      0.19827000000000     0.13765000000000     0.93931000000000
H6     H      0.21531000000000     0.63814000000000     0.23368000000000
H6     H      0.71531000000000     0.13814000000000     0.23368000000000
H6     H      0.78469000000000     0.63814000000000     0.76632000000000
H6     H      0.28469000000000     0.13814000000000     0.76632000000000
H7     H      0.98125000000000     0.63721000000000     0.13992000000000
H7     H      0.48125000000000     0.13721000000000     0.13992000000000
H7     H      0.01875000000000     0.63721000000000     0.86008000000000
H7     H      0.51875000000000     0.13721000000000     0.86008000000000
H8     H      0.91326000000000     0.63812000000000     0.40607000000000
H8     H      0.41326000000000     0.13812000000000     0.40607000000000
H8     H      0.08674000000000     0.63812000000000     0.59393000000000
H8     H      0.58674000000000     0.13812000000000     0.59393000000000
