data_default
_cell_volume           780.621979
_symmetry_space_group_name_H-M 'P 1'
_symmetry_Int_Tables_number 1
loop_
_symmetry_equiv_pos_site_id
_symmetry_equiv_pos_as_xyz
1 x,y,z
_cell_length_a        16.5370000000
_cell_length_b         4.2970000000
_cell_length_c        11.1700000000
_cell_angle_alpha        90.0000
_cell_angle_beta       100.4290
_cell_angle_gamma        90.0000
_cell_formula_units_Z 1
loop_
_atom_site_label
_atom_site_type_symbol
_atom_site_fract_x
_atom_site_fract_y
_atom_site_fract_z
C_1    C      0.34295000000000     0.71399000000000     0.91431000000000
C_1    C      0.84295000000000     0.21399000000000     0.91431000000000
C_1    C      0.65705000000000     0.28601000000000     0.08569000000000
C_1    C      0.15705000000000     0.78601000000000     0.08569000000000
C_1    C      0.65705000000000     0.71399000000000     0.58569000000000
C_1    C      0.15705000000000     0.21399000000000     0.58569000000000
C_1    C      0.34295000000000     0.28601000000000     0.41431000000000
C_1    C      0.84295000000000     0.78601000000000     0.41431000000000
C_2    C      0.42427000000000     0.80259000000000     0.87251000000000
C_2    C      0.92427000000000     0.30259000000000     0.87251000000000
C_2    C      0.57573000000000     0.19741000000000     0.12749000000000
C_2    C      0.07573000000000     0.69741000000000     0.12749000000000
C_2    C      0.57573000000000     0.80259000000000     0.62749000000000
C_2    C      0.07573000000000     0.30259000000000     0.62749000000000
C_2    C      0.42427000000000     0.19741000000000     0.37251000000000
C_2    C      0.92427000000000     0.69741000000000     0.37251000000000
C_3    C      0.38050000000000     0.70352000000000     0.74371000000000
C_3    C      0.88050000000000     0.20352000000000     0.74371000000000
C_3    C      0.61950000000000     0.29648000000000     0.25629000000000
C_3    C      0.11950000000000     0.79648000000000     0.25629000000000
C_3    C      0.61950000000000     0.70352000000000     0.75629000000000
C_3    C      0.11950000000000     0.20352000000000     0.75629000000000
C_3    C      0.38050000000000     0.29648000000000     0.24371000000000
C_3    C      0.88050000000000     0.79648000000000     0.24371000000000
N_4    N      0.30056000000000     0.73097000000000     0.78548000000000
N_4    N      0.80056000000000     0.23097000000000     0.78548000000000
N_4    N      0.69944000000000     0.26903000000000     0.21452000000000
N_4    N      0.19944000000000     0.76903000000000     0.21452000000000
N_4    N      0.69944000000000     0.73097000000000     0.71452000000000
N_4    N      0.19944000000000     0.23097000000000     0.71452000000000
N_4    N      0.30056000000000     0.26903000000000     0.28548000000000
N_4    N      0.80056000000000     0.76903000000000     0.28548000000000
H_5    H      0.34569000000000     0.47981000000000     0.95418000000000
H_5    H      0.84569000000000     0.97981000000000     0.95418000000000
H_5    H      0.65431000000000     0.52019000000000     0.04582000000000
H_5    H      0.15431000000000     0.02019000000000     0.04582000000000
H_5    H      0.65431000000000     0.47981000000000     0.54582000000000
H_5    H      0.15431000000000     0.97981000000000     0.54582000000000
H_5    H      0.34569000000000     0.52019000000000     0.45418000000000
H_5    H      0.84569000000000     0.02019000000000     0.45418000000000
H_6    H      0.39690000000000     0.46550000000000     0.72146000000000
H_6    H      0.89690000000000     0.96550000000000     0.72146000000000
H_6    H      0.60310000000000     0.53450000000000     0.27854000000000
H_6    H      0.10310000000000     0.03450000000000     0.27854000000000
H_6    H      0.60310000000000     0.46550000000000     0.77854000000000
H_6    H      0.10310000000000     0.96550000000000     0.77854000000000
H_6    H      0.39690000000000     0.53450000000000     0.22146000000000
H_6    H      0.89690000000000     0.03450000000000     0.22146000000000
H_7    H      0.38675000000000     0.85585000000000     0.66699000000000
H_7    H      0.88675000000000     0.35585000000000     0.66699000000000
H_7    H      0.61325000000000     0.14415000000000     0.33301000000000
H_7    H      0.11325000000000     0.64415000000000     0.33301000000000
H_7    H      0.61325000000000     0.85585000000000     0.83301000000000
H_7    H      0.11325000000000     0.35585000000000     0.83301000000000
H_7    H      0.38675000000000     0.14415000000000     0.16699000000000
H_7    H      0.88675000000000     0.64415000000000     0.16699000000000
H_8    H      0.31883000000000     0.87481000000000     0.97568000000000
H_8    H      0.81883000000000     0.37481000000000     0.97568000000000
H_8    H      0.68117000000000     0.12519000000000     0.02432000000000
H_8    H      0.18117000000000     0.62519000000000     0.02432000000000
H_8    H      0.68117000000000     0.87481000000000     0.52432000000000
H_8    H      0.18117000000000     0.37481000000000     0.52432000000000
H_8    H      0.31883000000000     0.12519000000000     0.47568000000000
H_8    H      0.81883000000000     0.62519000000000     0.47568000000000
H_9    H      0.43686000000000     0.05349000000000     0.87929000000000
H_9    H      0.93686000000000     0.55349000000000     0.87929000000000
H_9    H      0.56314000000000     0.94651000000000     0.12071000000000
H_9    H      0.06314000000000     0.44651000000000     0.12071000000000
H_9    H      0.56314000000000     0.05349000000000     0.62071000000000
H_9    H      0.06314000000000     0.55349000000000     0.62071000000000
H_9    H      0.43686000000000     0.94651000000000     0.37929000000000
H_9    H      0.93686000000000     0.44651000000000     0.37929000000000
H_10   H      0.47988000000000     0.67385000000000     0.91301000000000
H_10   H      0.97988000000000     0.17385000000000     0.91301000000000
H_10   H      0.52012000000000     0.32615000000000     0.08699000000000
H_10   H      0.02012000000000     0.82615000000000     0.08699000000000
H_10   H      0.52012000000000     0.67385000000000     0.58699000000000
H_10   H      0.02012000000000     0.17385000000000     0.58699000000000
H_10   H      0.47988000000000     0.32615000000000     0.41301000000000
H_10   H      0.97988000000000     0.82615000000000     0.41301000000000
H_11   H      0.25999000000000     0.55713000000000     0.75825000000000
H_11   H      0.75999000000000     0.05713000000000     0.75825000000000
H_11   H      0.74001000000000     0.44287000000000     0.24175000000000
H_11   H      0.24001000000000     0.94287000000000     0.24175000000000
H_11   H      0.74001000000000     0.55713000000000     0.74175000000000
H_11   H      0.24001000000000     0.05713000000000     0.74175000000000
H_11   H      0.25999000000000     0.44287000000000     0.25825000000000
H_11   H      0.75999000000000     0.94287000000000     0.25825000000000
