data_default
_cell_volume           384.757104
_symmetry_space_group_name_H-M 'P 1'
_symmetry_Int_Tables_number 1
loop_
_symmetry_equiv_pos_site_id
_symmetry_equiv_pos_as_xyz
1 x,y,z
_cell_length_a         5.6620000000
_cell_length_b         4.2950000000
_cell_length_c        20.4160000000
_cell_angle_alpha        90.0000
_cell_angle_beta       129.1980
_cell_angle_gamma        90.0000
_cell_formula_units_Z 1
loop_
_atom_site_label
_atom_site_type_symbol
_atom_site_fract_x
_atom_site_fract_y
_atom_site_fract_z
C_1    C      0.73581000000000     0.75106000000000     0.61368000000000
C_1    C      0.26419000000000     0.24894000000000     0.38632000000000
C_1    C      0.26419000000000     0.25106000000000     0.88632000000000
C_1    C      0.73581000000000     0.74894000000000     0.11368000000000
C_2    C      0.40663000000000     0.83448000000000     0.57702000000000
C_2    C      0.59337000000000     0.16552000000000     0.42298000000000
C_2    C      0.59337000000000     0.33448000000000     0.92298000000000
C_2    C      0.40663000000000     0.66552000000000     0.07702000000000
C_3    C      0.50526000000000     0.73105000000000     0.66381000000000
C_3    C      0.49474000000000     0.26895000000000     0.33619000000000
C_3    C      0.49474000000000     0.23105000000000     0.83619000000000
C_3    C      0.50526000000000     0.76895000000000     0.16381000000000
N_4    N      0.82801000000000     0.76362000000000     0.69973000000000
N_4    N      0.17199000000000     0.23638000000000     0.30027000000000
N_4    N      0.17199000000000     0.26362000000000     0.80027000000000
N_4    N      0.82801000000000     0.73638000000000     0.19973000000000
H_5    H      0.74878000000000     0.51860000000000     0.59374000000000
H_5    H      0.25122000000000     0.48140000000000     0.40626000000000
H_5    H      0.25122000000000     0.01860000000000     0.90626000000000
H_5    H      0.74878000000000     0.98140000000000     0.09374000000000
H_6    H      0.43428000000000     0.49128000000000     0.66213000000000
H_6    H      0.56572000000000     0.50872000000000     0.33787000000000
H_6    H      0.56572000000000     0.99128000000000     0.83787000000000
H_6    H      0.43428000000000     0.00872000000000     0.16213000000000
H_7    H      0.43992000000000     0.87953000000000     0.69383000000000
H_7    H      0.56008000000000     0.12047000000000     0.30617000000000
H_7    H      0.56008000000000     0.37953000000000     0.80617000000000
H_7    H      0.43992000000000     0.62047000000000     0.19383000000000
H_8    H      0.85709000000000     0.91579000000000     0.60312000000000
H_8    H      0.14291000000000     0.08421000000000     0.39688000000000
H_8    H      0.14291000000000     0.41579000000000     0.89688000000000
H_8    H      0.85709000000000     0.58421000000000     0.10312000000000
H_9    H      0.36005000000000     0.08526000000000     0.56585000000000
H_9    H      0.63995000000000     0.91474000000000     0.43415000000000
H_9    H      0.63995000000000     0.58526000000000     0.93415000000000
H_9    H      0.36005000000000     0.41474000000000     0.06585000000000
H_10   H      0.21967000000000     0.70538000000000     0.52100000000000
H_10   H      0.78033000000000     0.29462000000000     0.47900000000000
H_10   H      0.78033000000000     0.20538000000000     0.97900000000000
H_10   H      0.21967000000000     0.79462000000000     0.02100000000000
H_11   H      0.96840000000000     0.59012000000000     0.73913000000000
H_11   H      0.03160000000000     0.40988000000000     0.26087000000000
H_11   H      0.03160000000000     0.09012000000000     0.76087000000000
H_11   H      0.96840000000000     0.90988000000000     0.23913000000000
