data_default
_cell_volume           193.018505
_symmetry_space_group_name_H-M 'P 1'
_symmetry_Int_Tables_number 1
loop_
_symmetry_equiv_pos_site_id
_symmetry_equiv_pos_as_xyz
1 x,y,z
_cell_length_a         5.6731000000
_cell_length_b         4.2790000000
_cell_length_c         7.9880000000
_cell_angle_alpha        90.0000
_cell_angle_beta        95.4970
_cell_angle_gamma        90.0000
_cell_formula_units_Z 1
loop_
_atom_site_label
_atom_site_type_symbol
_atom_site_fract_x
_atom_site_fract_y
_atom_site_fract_z
C_1    C      0.50823000000000     0.98983000000000     0.22814000000000
C_1    C      0.49177000000000     0.48983000000000     0.77186000000000
C_2    C      0.25339000000000     0.07362000000000     0.15507000000000
C_2    C      0.74661000000000     0.57362000000000     0.84493000000000
C_3    C      0.17829000000000     0.97744000000000     0.32915000000000
C_3    C      0.82171000000000     0.47744000000000     0.67085000000000
N_4    N      0.42881000000000     0.01004000000000     0.39950000000000
N_4    N      0.57119000000000     0.51004000000000     0.60050000000000
H_5    H      0.55972000000000     0.75442000000000     0.19084000000000
H_5    H      0.44028000000000     0.25442000000000     0.80916000000000
H_6    H      0.10962000000000     0.73751000000000     0.32862000000000
H_6    H      0.89038000000000     0.23751000000000     0.67138000000000
H_7    H      0.05407000000000     0.13023000000000     0.38765000000000
H_7    H      0.94593000000000     0.63023000000000     0.61235000000000
H_8    H      0.65109000000000     0.15265000000000     0.20490000000000
H_8    H      0.34891000000000     0.65265000000000     0.79510000000000
H_9    H      0.23048000000000     0.32466000000000     0.13016000000000
H_9    H      0.76952000000000     0.82466000000000     0.86984000000000
H_10   H      0.17786000000000     0.94062000000000     0.04521000000000
H_10   H      0.82214000000000     0.44062000000000     0.95479000000000
H_11   H      0.48943000000000     0.83833000000000     0.47966000000000
H_11   H      0.51057000000000     0.33833000000000     0.52034000000000
