data_default
_cell_volume           199.267421
_symmetry_space_group_name_H-M 'P 1'
_symmetry_Int_Tables_number 1
loop_
_symmetry_equiv_pos_site_id
_symmetry_equiv_pos_as_xyz
1 x,y,z
_cell_length_a         5.5891300000
_cell_length_b         4.3834500000
_cell_length_c         8.1463400000
_cell_angle_alpha        90.0000
_cell_angle_beta        93.2207
_cell_angle_gamma        90.0000
_cell_formula_units_Z 1
loop_
_atom_site_label
_atom_site_type_symbol
_atom_site_fract_x
_atom_site_fract_y
_atom_site_fract_z
N1     N      0.08190000000000     0.52577000000000     0.11481000000000
N1     N      0.91810000000000     0.02577000000000     0.88519000000000
C2     C      0.99997000000000     0.50170000000000     0.28241000000000
C2     C      0.00003000000000     0.00170000000000     0.71759000000000
C3     C      0.25375000000000     0.59215000000000     0.34862000000000
C3     C      0.74625000000000     0.09215000000000     0.65138000000000
C4     C      0.33323000000000     0.50567000000000     0.17663000000000
C4     C      0.66677000000000     0.00567000000000     0.82337000000000
H5     H      0.45328000000000     0.65994000000000     0.11766000000000
H5     H      0.54672000000000     0.15994000000000     0.88234000000000
H6     H      0.40686000000000     0.27587000000000     0.17357000000000
H6     H      0.59314000000000     0.77587000000000     0.82643000000000
H7     H      0.27010000000000     0.83425000000000     0.37317000000000
H7     H      0.72990000000000     0.33425000000000     0.62683000000000
H8     H      0.33123000000000     0.46533000000000     0.45253000000000
H8     H      0.66877000000000     0.96533000000000     0.54747000000000
H9     H      0.95330000000000     0.27047000000000     0.31754000000000
H9     H      0.04670000000000     0.77047000000000     0.68246000000000
H10    H      0.85324000000000     0.65280000000000     0.30812000000000
H10    H      0.14676000000000     0.15280000000000     0.69188000000000
H11    H      0.02419000000000     0.36486000000000     0.03494000000000
H11    H      0.97581000000000     0.86486000000000     0.96506000000000
