data_default
_cell_volume           391.838058
_symmetry_space_group_name_H-M 'P 1'
_symmetry_Int_Tables_number 1
loop_
_symmetry_equiv_pos_site_id
_symmetry_equiv_pos_as_xyz
1 x,y,z
_cell_length_a         5.6052600000
_cell_length_b         9.2623700000
_cell_length_c         7.5885100000
_cell_angle_alpha        90.0000
_cell_angle_beta        84.0225
_cell_angle_gamma        90.0000
_cell_formula_units_Z 1
loop_
_atom_site_label
_atom_site_type_symbol
_atom_site_fract_x
_atom_site_fract_y
_atom_site_fract_z
N1     N      0.07322000000000     0.29020000000000     0.43791000000000
N1     N      0.07322000000000     0.70980000000000     0.93791000000000
C2     C      0.32822000000000     0.25272000000000     0.40277000000000
C2     C      0.32822000000000     0.74728000000000     0.90277000000000
C3     C      0.25385000000000     0.10884000000000     0.32247000000000
C3     C      0.25385000000000     0.89116000000000     0.82247000000000
C4     C      0.00388000000000     0.13844000000000     0.42044000000000
C4     C      0.00388000000000     0.86156000000000     0.92044000000000
H5     H      0.84908000000000     0.12184000000000     0.34837000000000
H5     H      0.84908000000000     0.87816000000000     0.84837000000000
H6     H      0.97584000000000     0.08110000000000     0.54617000000000
H6     H      0.97584000000000     0.91890000000000     0.04617000000000
H7     H      0.25470000000000     0.11407000000000     0.17985000000000
H7     H      0.25470000000000     0.88593000000000     0.67985000000000
H8     H      0.34618000000000     0.01211000000000     0.35792000000000
H8     H      0.34618000000000     0.98789000000000     0.85792000000000
H9     H      0.41726000000000     0.23664000000000     0.52212000000000
H9     H      0.41726000000000     0.76336000000000     0.02212000000000
H10    H      0.43306000000000     0.32760000000000     0.31654000000000
H10    H      0.43306000000000     0.67240000000000     0.81654000000000
H11    H      0.02217000000000     0.33788000000000     0.55405000000000
H11    H      0.02217000000000     0.66212000000000     0.05405000000000
N1     N      0.93113000000000     0.42063000000000     0.80064000000000
N1     N      0.93113000000000     0.57937000000000     0.30064000000000
C2     C      0.01620000000000     0.30450000000000     0.90999000000000
C2     C      0.01620000000000     0.69550000000000     0.40999000000000
C3     C      0.76234000000000     0.23884000000000     0.92460000000000
C3     C      0.76234000000000     0.76116000000000     0.42460000000000
C4     C      0.68063000000000     0.38817000000000     0.86452000000000
C4     C      0.68063000000000     0.61183000000000     0.36452000000000
H5     H      0.55804000000000     0.39168000000000     0.76319000000000
H5     H      0.55804000000000     0.60832000000000     0.26319000000000
H6     H      0.60887000000000     0.45486000000000     0.97580000000000
H6     H      0.60887000000000     0.54514000000000     0.47580000000000
H7     H      0.74423000000000     0.15567000000000     0.82660000000000
H7     H      0.74423000000000     0.84433000000000     0.32660000000000
H8     H      0.68760000000000     0.20066000000000     0.05349000000000
H8     H      0.68760000000000     0.79934000000000     0.55349000000000
H9     H      0.06557000000000     0.34100000000000     0.03769000000000
H9     H      0.06557000000000     0.65900000000000     0.53769000000000
H10    H      0.16224000000000     0.24104000000000     0.84506000000000
H10    H      0.16224000000000     0.75896000000000     0.34506000000000
H11    H      0.98901000000000     0.52039000000000     0.82356000000000
H11    H      0.98901000000000     0.47961000000000     0.32356000000000
