data_default
_cell_volume           370.754957
_symmetry_space_group_name_H-M 'P 1'
_symmetry_Int_Tables_number 1
loop_
_symmetry_equiv_pos_site_id
_symmetry_equiv_pos_as_xyz
1 x,y,z
_cell_length_a         5.0590000000
_cell_length_b        13.6450000000
_cell_length_c         5.7960000000
_cell_angle_alpha        90.0000
_cell_angle_beta        67.9200
_cell_angle_gamma        90.0000
_cell_formula_units_Z 1
loop_
_atom_site_label
_atom_site_type_symbol
_atom_site_fract_x
_atom_site_fract_y
_atom_site_fract_z
C1     C      0.09180000000000     0.16260000000000     0.10827000000000
C1     C      0.59180000000000     0.66260000000000     0.10827000000000
C1     C      0.09180000000000     0.83740000000000     0.60827000000000
C1     C      0.59180000000000     0.33740000000000     0.60827000000000
C2     C      0.79788000000000     0.15574000000000     0.08272000000000
C2     C      0.29788000000000     0.65574000000000     0.08272000000000
C2     C      0.79788000000000     0.84426000000000     0.58272000000000
C2     C      0.29788000000000     0.34426000000000     0.58272000000000
N3     N      0.90570000000000     0.06934000000000     0.92135000000000
N3     N      0.40570000000000     0.56934000000000     0.92135000000000
N3     N      0.90570000000000     0.93066000000000     0.42135000000000
N3     N      0.40570000000000     0.43066000000000     0.42135000000000
C4     C      0.20462000000000     0.08948000000000     0.88766000000000
C4     C      0.70462000000000     0.58948000000000     0.88766000000000
C4     C      0.20462000000000     0.91052000000000     0.38766000000000
C4     C      0.70462000000000     0.41052000000000     0.38766000000000
H5     H      0.19220000000000     0.23463000000000     0.07969000000000
H5     H      0.69220000000000     0.73463000000000     0.07969000000000
H5     H      0.19220000000000     0.76537000000000     0.57969000000000
H5     H      0.69220000000000     0.26537000000000     0.57969000000000
H6     H      0.08962000000000     0.13190000000000     0.28259000000000
H6     H      0.58962000000000     0.63190000000000     0.28259000000000
H6     H      0.08962000000000     0.86810000000000     0.78259000000000
H6     H      0.58962000000000     0.36810000000000     0.78259000000000
H7     H      0.75278000000000     0.21905000000000     0.98880000000000
H7     H      0.25278000000000     0.71905000000000     0.98880000000000
H7     H      0.75278000000000     0.78095000000000     0.48880000000000
H7     H      0.25278000000000     0.28095000000000     0.48880000000000
H8     H      0.61304000000000     0.14129000000000     0.25224000000000
H8     H      0.11304000000000     0.64129000000000     0.25224000000000
H8     H      0.61304000000000     0.85871000000000     0.75224000000000
H8     H      0.11304000000000     0.35871000000000     0.75224000000000
H9     H      0.84866000000000     0.05533000000000     0.77712000000000
H9     H      0.34866000000000     0.55533000000000     0.77712000000000
H9     H      0.84866000000000     0.94467000000000     0.27712000000000
H9     H      0.34866000000000     0.44467000000000     0.27712000000000
H10    H      0.32986000000000     0.12505000000000     0.71206000000000
H10    H      0.82986000000000     0.62505000000000     0.71206000000000
H10    H      0.32986000000000     0.87495000000000     0.21206000000000
H10    H      0.82986000000000     0.37495000000000     0.21206000000000
H11    H      0.32157000000000     0.02587000000000     0.91246000000000
H11    H      0.82157000000000     0.52587000000000     0.91246000000000
H11    H      0.32157000000000     0.97413000000000     0.41246000000000
H11    H      0.82157000000000     0.47413000000000     0.41246000000000
