data_default
_cell_volume          1639.050789
_symmetry_space_group_name_H-M 'P 1'
_symmetry_Int_Tables_number 1
loop_
_symmetry_equiv_pos_site_id
_symmetry_equiv_pos_as_xyz
1 x,y,z
_cell_length_a        20.3485000000
_cell_length_b         4.4579000000
_cell_length_c        20.3485000000
_cell_angle_alpha        90.0000
_cell_angle_beta       117.3810
_cell_angle_gamma        90.0000
_cell_formula_units_Z 1
loop_
_atom_site_label
_atom_site_type_symbol
_atom_site_fract_x
_atom_site_fract_y
_atom_site_fract_z
C1     C      0.70408000000000     0.79320000000000     0.32338000000000
C1     C      0.20408000000000     0.29320000000000     0.32338000000000
C1     C      0.29592000000000     0.79320000000000     0.17662000000000
C1     C      0.79592000000000     0.29320000000000     0.17662000000000
C1     C      0.29592000000000     0.20680000000000     0.67662000000000
C1     C      0.79592000000000     0.70680000000000     0.67662000000000
C1     C      0.70408000000000     0.20680000000000     0.82338000000000
C1     C      0.20408000000000     0.70680000000000     0.82338000000000
N2     N      0.63594000000000     0.72840000000000     0.33140000000000
N2     N      0.13594000000000     0.22840000000000     0.33140000000000
N2     N      0.36406000000000     0.72840000000000     0.16860000000000
N2     N      0.86406000000000     0.22840000000000     0.16860000000000
N2     N      0.36406000000000     0.27160000000000     0.66860000000000
N2     N      0.86406000000000     0.77160000000000     0.66860000000000
N2     N      0.63594000000000     0.27160000000000     0.83140000000000
N2     N      0.13594000000000     0.77160000000000     0.83140000000000
C3     C      0.58988000000000     0.76814000000000     0.24970000000000
C3     C      0.08988000000000     0.26814000000000     0.24970000000000
C3     C      0.41012000000000     0.76814000000000     0.25030000000000
C3     C      0.91012000000000     0.26814000000000     0.25030000000000
C3     C      0.41012000000000     0.23186000000000     0.75030000000000
C3     C      0.91012000000000     0.73186000000000     0.75030000000000
C3     C      0.58988000000000     0.23186000000000     0.74970000000000
C3     C      0.08988000000000     0.73186000000000     0.74970000000000
C4     C      0.66018000000000     0.71492000000000     0.24019000000000
C4     C      0.16018000000000     0.21492000000000     0.24019000000000
C4     C      0.33982000000000     0.71492000000000     0.25981000000000
C4     C      0.83982000000000     0.21492000000000     0.25981000000000
C4     C      0.33982000000000     0.28508000000000     0.75981000000000
C4     C      0.83982000000000     0.78508000000000     0.75981000000000
C4     C      0.66018000000000     0.28508000000000     0.74019000000000
C4     C      0.16018000000000     0.78508000000000     0.74019000000000
H5     H      0.75212000000000     0.65293000000000     0.35796000000000
H5     H      0.25212000000000     0.15293000000000     0.35796000000000
H5     H      0.24788000000000     0.65293000000000     0.14204000000000
H5     H      0.74788000000000     0.15293000000000     0.14204000000000
H5     H      0.24788000000000     0.34707000000000     0.64204000000000
H5     H      0.74788000000000     0.84707000000000     0.64204000000000
H5     H      0.75212000000000     0.34707000000000     0.85796000000000
H5     H      0.25212000000000     0.84707000000000     0.85796000000000
H6     H      0.72083000000000     0.03089000000000     0.33216000000000
H6     H      0.22083000000000     0.53089000000000     0.33216000000000
H6     H      0.27917000000000     0.03089000000000     0.16784000000000
H6     H      0.77917000000000     0.53089000000000     0.16784000000000
H6     H      0.27917000000000     0.96911000000000     0.66784000000000
H6     H      0.77917000000000     0.46911000000000     0.66784000000000
H6     H      0.72083000000000     0.96911000000000     0.83216000000000
H6     H      0.22083000000000     0.46911000000000     0.83216000000000
H7     H      0.62546000000000     0.88345000000000     0.36237000000000
H7     H      0.12546000000000     0.38345000000000     0.36237000000000
H7     H      0.37454000000000     0.88345000000000     0.13763000000000
H7     H      0.87454000000000     0.38345000000000     0.13763000000000
H7     H      0.37454000000000     0.11655000000000     0.63763000000000
H7     H      0.87454000000000     0.61655000000000     0.63763000000000
H7     H      0.62546000000000     0.11655000000000     0.86237000000000
H7     H      0.12546000000000     0.61655000000000     0.86237000000000
H8     H      0.56807000000000     0.99736000000000     0.23359000000000
H8     H      0.06807000000000     0.49736000000000     0.23359000000000
H8     H      0.43193000000000     0.99736000000000     0.26641000000000
H8     H      0.93193000000000     0.49736000000000     0.26641000000000
H8     H      0.43193000000000     0.00264000000000     0.76641000000000
H8     H      0.93193000000000     0.50264000000000     0.76641000000000
H8     H      0.56807000000000     0.00264000000000     0.73359000000000
H8     H      0.06807000000000     0.50264000000000     0.73359000000000
H9     H      0.54408000000000     0.60728000000000     0.22372000000000
H9     H      0.04408000000000     0.10728000000000     0.22372000000000
H9     H      0.45592000000000     0.60728000000000     0.27628000000000
H9     H      0.95592000000000     0.10728000000000     0.27628000000000
H9     H      0.45592000000000     0.39272000000000     0.77628000000000
H9     H      0.95592000000000     0.89272000000000     0.77628000000000
H9     H      0.54408000000000     0.39272000000000     0.72372000000000
H9     H      0.04408000000000     0.89272000000000     0.72372000000000
H10    H      0.66837000000000     0.85890000000000     0.20094000000000
H10    H      0.16837000000000     0.35890000000000     0.20094000000000
H10    H      0.33163000000000     0.85890000000000     0.29906000000000
H10    H      0.83163000000000     0.35890000000000     0.29906000000000
H10    H      0.33163000000000     0.14110000000000     0.79906000000000
H10    H      0.83163000000000     0.64110000000000     0.79906000000000
H10    H      0.66837000000000     0.14110000000000     0.70094000000000
H10    H      0.16837000000000     0.64110000000000     0.70094000000000
H11    H      0.66668000000000     0.47917000000000     0.22893000000000
H11    H      0.16668000000000     0.97917000000000     0.22893000000000
H11    H      0.33332000000000     0.47917000000000     0.27107000000000
H11    H      0.83332000000000     0.97917000000000     0.27107000000000
H11    H      0.33332000000000     0.52083000000000     0.77107000000000
H11    H      0.83332000000000     0.02083000000000     0.77107000000000
H11    H      0.66668000000000     0.52083000000000     0.72893000000000
H11    H      0.16668000000000     0.02083000000000     0.72893000000000
C12    C      0.45458000000000     0.28520000000000     0.07103000000000
C12    C      0.95458000000000     0.78520000000000     0.07103000000000
C12    C      0.54542000000000     0.28520000000000     0.42897000000000
C12    C      0.04542000000000     0.78520000000000     0.42897000000000
C12    C      0.54542000000000     0.71480000000000     0.92897000000000
C12    C      0.04542000000000     0.21480000000000     0.92897000000000
C12    C      0.45458000000000     0.71480000000000     0.57103000000000
C12    C      0.95458000000000     0.21480000000000     0.57103000000000
N13    N      0.38899000000000     0.22393000000000     0.08373000000000
N13    N      0.88899000000000     0.72393000000000     0.08373000000000
N13    N      0.61101000000000     0.22393000000000     0.41627000000000
N13    N      0.11101000000000     0.72393000000000     0.41627000000000
N13    N      0.61101000000000     0.77607000000000     0.91627000000000
N13    N      0.11101000000000     0.27607000000000     0.91627000000000
N13    N      0.38899000000000     0.77607000000000     0.58373000000000
N13    N      0.88899000000000     0.27607000000000     0.58373000000000
C14    C      0.33938000000000     0.25311000000000     0.00235000000000
C14    C      0.83938000000000     0.75311000000000     0.00235000000000
C14    C      0.66062000000000     0.25311000000000     0.49765000000000
C14    C      0.16062000000000     0.75311000000000     0.49765000000000
C14    C      0.66062000000000     0.74689000000000     0.99765000000000
C14    C      0.16062000000000     0.24689000000000     0.99765000000000
C14    C      0.33938000000000     0.74689000000000     0.50235000000000
C14    C      0.83938000000000     0.24689000000000     0.50235000000000
C15    C      0.40729000000000     0.19614000000000     0.98896000000000
C15    C      0.90729000000000     0.69614000000000     0.98896000000000
C15    C      0.59271000000000     0.19614000000000     0.51104000000000
C15    C      0.09271000000000     0.69614000000000     0.51104000000000
C15    C      0.59271000000000     0.80386000000000     0.01104000000000
C15    C      0.09271000000000     0.30386000000000     0.01104000000000
C15    C      0.40729000000000     0.80386000000000     0.48896000000000
C15    C      0.90729000000000     0.30386000000000     0.48896000000000
H16    H      0.50363000000000     0.14851000000000     0.10482000000000
H16    H      0.00363000000000     0.64851000000000     0.10482000000000
H16    H      0.49637000000000     0.14851000000000     0.39518000000000
H16    H      0.99637000000000     0.64851000000000     0.39518000000000
H16    H      0.49637000000000     0.85149000000000     0.89518000000000
H16    H      0.99637000000000     0.35149000000000     0.89518000000000
H16    H      0.50363000000000     0.85149000000000     0.60482000000000
H16    H      0.00363000000000     0.35149000000000     0.60482000000000
H17    H      0.47078000000000     0.52350000000000     0.07712000000000
H17    H      0.97078000000000     0.02350000000000     0.07712000000000
H17    H      0.52922000000000     0.52350000000000     0.42288000000000
H17    H      0.02922000000000     0.02350000000000     0.42288000000000
H17    H      0.52922000000000     0.47650000000000     0.92288000000000
H17    H      0.02922000000000     0.97650000000000     0.92288000000000
H17    H      0.47078000000000     0.47650000000000     0.57712000000000
H17    H      0.97078000000000     0.97650000000000     0.57712000000000
H18    H      0.38020000000000     0.38382000000000     0.11482000000000
H18    H      0.88020000000000     0.88382000000000     0.11482000000000
H18    H      0.61980000000000     0.38382000000000     0.38518000000000
H18    H      0.11980000000000     0.88382000000000     0.38518000000000
H18    H      0.61980000000000     0.61618000000000     0.88518000000000
H18    H      0.11980000000000     0.11618000000000     0.88518000000000
H18    H      0.38020000000000     0.61618000000000     0.61482000000000
H18    H      0.88020000000000     0.11618000000000     0.61482000000000
H19    H      0.31667000000000     0.48056000000000     0.98524000000000
H19    H      0.81667000000000     0.98056000000000     0.98524000000000
H19    H      0.68333000000000     0.48056000000000     0.51476000000000
H19    H      0.18333000000000     0.98056000000000     0.51476000000000
H19    H      0.68333000000000     0.51944000000000     0.01476000000000
H19    H      0.18333000000000     0.01944000000000     0.01476000000000
H19    H      0.31667000000000     0.51944000000000     0.48524000000000
H19    H      0.81667000000000     0.01944000000000     0.48524000000000
H20    H      0.29376000000000     0.09004000000000     0.97970000000000
H20    H      0.79376000000000     0.59004000000000     0.97970000000000
H20    H      0.70624000000000     0.09004000000000     0.52030000000000
H20    H      0.20624000000000     0.59004000000000     0.52030000000000
H20    H      0.70624000000000     0.90996000000000     0.02030000000000
H20    H      0.20624000000000     0.40996000000000     0.02030000000000
H20    H      0.29376000000000     0.90996000000000     0.47970000000000
H20    H      0.79376000000000     0.40996000000000     0.47970000000000
H21    H      0.41261000000000     0.33396000000000     0.94709000000000
H21    H      0.91261000000000     0.83396000000000     0.94709000000000
H21    H      0.58739000000000     0.33396000000000     0.55291000000000
H21    H      0.08739000000000     0.83396000000000     0.55291000000000
H21    H      0.58739000000000     0.66604000000000     0.05291000000000
H21    H      0.08739000000000     0.16604000000000     0.05291000000000
H21    H      0.41261000000000     0.66604000000000     0.44709000000000
H21    H      0.91261000000000     0.16604000000000     0.44709000000000
H22    H      0.41354000000000     0.95863000000000     0.97896000000000
H22    H      0.91354000000000     0.45863000000000     0.97896000000000
H22    H      0.58646000000000     0.95863000000000     0.52104000000000
H22    H      0.08646000000000     0.45863000000000     0.52104000000000
H22    H      0.58646000000000     0.04137000000000     0.02104000000000
H22    H      0.08646000000000     0.54137000000000     0.02104000000000
H22    H      0.41354000000000     0.04137000000000     0.47896000000000
H22    H      0.91354000000000     0.54137000000000     0.47896000000000
