data_default
_cell_volume           370.819292
_symmetry_space_group_name_H-M 'P 1'
_symmetry_Int_Tables_number 1
loop_
_symmetry_equiv_pos_site_id
_symmetry_equiv_pos_as_xyz
1 x,y,z
_cell_length_a         5.0430000000
_cell_length_b        13.7090000000
_cell_length_c         5.8940000000
_cell_angle_alpha        90.0000
_cell_angle_beta       114.4900
_cell_angle_gamma        90.0000
_cell_formula_units_Z 1
loop_
_atom_site_label
_atom_site_type_symbol
_atom_site_fract_x
_atom_site_fract_y
_atom_site_fract_z
C1     C      0.39633000000000     0.08828000000000     0.20045000000000
C1     C      0.60367000000000     0.91172000000000     0.79955000000000
C1     C      0.60367000000000     0.58828000000000     0.29955000000000
C1     C      0.39633000000000     0.41172000000000     0.70045000000000
C2     C      0.10201000000000     0.09312000000000     0.22513000000000
C2     C      0.89799000000000     0.90688000000000     0.77487000000000
C2     C      0.89799000000000     0.59312000000000     0.27487000000000
C2     C      0.10201000000000     0.40688000000000     0.72513000000000
N3     N      0.21084000000000     0.18107000000000     0.38078000000000
N3     N      0.78916000000000     0.81893000000000     0.61922000000000
N3     N      0.78916000000000     0.68107000000000     0.11922000000000
N3     N      0.21084000000000     0.31893000000000     0.88078000000000
C4     C      0.51434000000000     0.16349000000000     0.41628000000000
C4     C      0.48566000000000     0.83651000000000     0.58372000000000
C4     C      0.48566000000000     0.66349000000000     0.08372000000000
C4     C      0.51434000000000     0.33651000000000     0.91628000000000
H5     H      0.50485000000000     0.01758000000000     0.23415000000000
H5     H      0.49515000000000     0.98242000000000     0.76585000000000
H5     H      0.49515000000000     0.51758000000000     0.26585000000000
H5     H      0.50485000000000     0.48242000000000     0.73415000000000
H6     H      0.38264000000000     0.11751000000000     0.02393000000000
H6     H      0.61736000000000     0.88249000000000     0.97607000000000
H6     H      0.61736000000000     0.61751000000000     0.47607000000000
H6     H      0.38264000000000     0.38249000000000     0.52393000000000
H7     H      0.06702000000000     0.03050000000000     0.32339000000000
H7     H      0.93298000000000     0.96950000000000     0.67661000000000
H7     H      0.93298000000000     0.53050000000000     0.17661000000000
H7     H      0.06702000000000     0.46950000000000     0.82339000000000
H8     H      0.90664000000000     0.10488000000000     0.05427000000000
H8     H      0.09336000000000     0.89512000000000     0.94573000000000
H8     H      0.09336000000000     0.60488000000000     0.44573000000000
H8     H      0.90664000000000     0.39512000000000     0.55427000000000
H9     H      0.15965000000000     0.19565000000000     0.52402000000000
H9     H      0.84035000000000     0.80435000000000     0.47598000000000
H9     H      0.84035000000000     0.69565000000000     0.97598000000000
H9     H      0.15965000000000     0.30435000000000     0.02402000000000
H10    H      0.65203000000000     0.13033000000000     0.59459000000000
H10    H      0.34797000000000     0.86967000000000     0.40541000000000
H10    H      0.34797000000000     0.63033000000000     0.90541000000000
H10    H      0.65203000000000     0.36967000000000     0.09459000000000
H11    H      0.62491000000000     0.22745000000000     0.38725000000000
H11    H      0.37509000000000     0.77255000000000     0.61275000000000
H11    H      0.37509000000000     0.72745000000000     0.11275000000000
H11    H      0.62491000000000     0.27255000000000     0.88725000000000
