data_default
_cell_volume           349.422894
_symmetry_space_group_name_H-M 'P 1'
_symmetry_Int_Tables_number 1
loop_
_symmetry_equiv_pos_site_id
_symmetry_equiv_pos_as_xyz
1 x,y,z
_cell_length_a        10.0210000000
_cell_length_b         4.2060000000
_cell_length_c        17.7100000000
_cell_angle_alpha        90.0000
_cell_angle_beta       152.0880
_cell_angle_gamma        90.0000
_cell_formula_units_Z 1
loop_
_atom_site_label
_atom_site_type_symbol
_atom_site_fract_x
_atom_site_fract_y
_atom_site_fract_z
N1     N      0.55108000000000     0.05018000000000     0.21322000000000
N1     N      0.44892000000000     0.55018000000000     0.28678000000000
N1     N      0.44892000000000     0.94982000000000     0.78678000000000
N1     N      0.55108000000000     0.44982000000000     0.71322000000000
C2     C      0.46681000000000     0.90497000000000     0.09939000000000
C2     C      0.53319000000000     0.40497000000000     0.40061000000000
C2     C      0.53319000000000     0.09503000000000     0.90061000000000
C2     C      0.46681000000000     0.59503000000000     0.59939000000000
C3     C      0.75371000000000     0.01512000000000     0.20945000000000
C3     C      0.24629000000000     0.51512000000000     0.29055000000000
C3     C      0.24629000000000     0.98488000000000     0.79055000000000
C3     C      0.75371000000000     0.48488000000000     0.70945000000000
C4     C      0.85059000000000     0.01968000000000     0.34103000000000
C4     C      0.14941000000000     0.51968000000000     0.15897000000000
C4     C      0.14941000000000     0.98032000000000     0.65897000000000
C4     C      0.85059000000000     0.48032000000000     0.84103000000000
H5     H      0.49358000000000     0.93162000000000     0.23134000000000
H5     H      0.50642000000000     0.43162000000000     0.26866000000000
H5     H      0.50642000000000     0.06838000000000     0.76866000000000
H5     H      0.49358000000000     0.56838000000000     0.73134000000000
H6     H      0.45205000000000     0.64317000000000     0.09482000000000
H6     H      0.54795000000000     0.14317000000000     0.40518000000000
H6     H      0.54795000000000     0.35683000000000     0.90518000000000
H6     H      0.45205000000000     0.85683000000000     0.59482000000000
H7     H      0.26692000000000     0.99662000000000     0.97562000000000
H7     H      0.73308000000000     0.49662000000000     0.52438000000000
H7     H      0.73308000000000     0.00338000000000     0.02438000000000
H7     H      0.26692000000000     0.50338000000000     0.47562000000000
H8     H      0.74440000000000     0.25249000000000     0.17868000000000
H8     H      0.25560000000000     0.75249000000000     0.32132000000000
H8     H      0.25560000000000     0.74751000000000     0.82132000000000
H8     H      0.74440000000000     0.24751000000000     0.67868000000000
H9     H      0.86385000000000     0.85336000000000     0.22578000000000
H9     H      0.13615000000000     0.35336000000000     0.27422000000000
H9     H      0.13615000000000     0.14664000000000     0.77422000000000
H9     H      0.86385000000000     0.64664000000000     0.72578000000000
H10    H      0.99046000000000     0.21126000000000     0.43118000000000
H10    H      0.00954000000000     0.71126000000000     0.06882000000000
H10    H      0.00954000000000     0.78874000000000     0.56882000000000
H10    H      0.99046000000000     0.28874000000000     0.93118000000000
H11    H      0.94584000000000     0.79065000000000     0.40574000000000
H11    H      0.05416000000000     0.29065000000000     0.09426000000000
H11    H      0.05416000000000     0.20935000000000     0.59426000000000
H11    H      0.94584000000000     0.70935000000000     0.90574000000000
