data_default
_cell_volume           343.786489
_symmetry_space_group_name_H-M 'P 1'
_symmetry_Int_Tables_number 1
loop_
_symmetry_equiv_pos_site_id
_symmetry_equiv_pos_as_xyz
1 x,y,z
_cell_length_a         5.2510000000
_cell_length_b        13.4620000000
_cell_length_c         6.1160000000
_cell_angle_alpha        90.0000
_cell_angle_beta       127.3270
_cell_angle_gamma        90.0000
_cell_formula_units_Z 1
loop_
_atom_site_label
_atom_site_type_symbol
_atom_site_fract_x
_atom_site_fract_y
_atom_site_fract_z
N1     N      0.32087000000000     0.70725000000000     0.48190000000000
N1     N      0.67913000000000     0.20725000000000     0.01810000000000
N1     N      0.67913000000000     0.29275000000000     0.51810000000000
N1     N      0.32087000000000     0.79275000000000     0.98190000000000
C2     C      0.61100000000000     0.65588000000000     0.70487000000000
C2     C      0.38900000000000     0.15588000000000     0.79513000000000
C2     C      0.38900000000000     0.34412000000000     0.29513000000000
C2     C      0.61100000000000     0.84412000000000     0.20487000000000
C3     C      0.39504000000000     0.57955000000000     0.70932000000000
C3     C      0.60496000000000     0.07955000000000     0.79068000000000
C3     C      0.60496000000000     0.42045000000000     0.29068000000000
C3     C      0.39504000000000     0.92045000000000     0.20932000000000
C4     C      0.13738000000000     0.61546000000000     0.41276000000000
C4     C      0.86262000000000     0.11546000000000     0.08724000000000
C4     C      0.86262000000000     0.38454000000000     0.58724000000000
C4     C      0.13738000000000     0.88454000000000     0.91276000000000
H5     H      0.32590000000000     0.73669000000000     0.33339000000000
H5     H      0.67410000000000     0.23669000000000     0.16661000000000
H5     H      0.67410000000000     0.26331000000000     0.66661000000000
H5     H      0.32590000000000     0.76331000000000     0.83339000000000
H6     H      0.74808000000000     0.62190000000000     0.64143000000000
H6     H      0.25192000000000     0.12190000000000     0.85857000000000
H6     H      0.25192000000000     0.37810000000000     0.35857000000000
H6     H      0.74808000000000     0.87810000000000     0.14143000000000
H7     H      0.77708000000000     0.70167000000000     0.88786000000000
H7     H      0.22292000000000     0.20167000000000     0.61214000000000
H7     H      0.22292000000000     0.29833000000000     0.11214000000000
H7     H      0.77708000000000     0.79833000000000     0.38786000000000
H8     H      0.34241000000000     0.59812000000000     0.85356000000000
H8     H      0.65759000000000     0.09812000000000     0.64644000000000
H8     H      0.65759000000000     0.40188000000000     0.14644000000000
H8     H      0.34241000000000     0.90188000000000     0.35356000000000
H9     H      0.46635000000000     0.50128000000000     0.73914000000000
H9     H      0.53365000000000     0.00128000000000     0.76086000000000
H9     H      0.53365000000000     0.49872000000000     0.26086000000000
H9     H      0.46635000000000     0.99872000000000     0.23914000000000
H10    H      0.89015000000000     0.62630000000000     0.34091000000000
H10    H      0.10985000000000     0.12630000000000     0.15909000000000
H10    H      0.10985000000000     0.37370000000000     0.65909000000000
H10    H      0.89015000000000     0.87370000000000     0.84091000000000
H11    H      0.13006000000000     0.56914000000000     0.26019000000000
H11    H      0.86994000000000     0.06914000000000     0.23981000000000
H11    H      0.86994000000000     0.43086000000000     0.73981000000000
H11    H      0.13006000000000     0.93086000000000     0.76019000000000
