data_default
_cell_volume           181.496005
_symmetry_space_group_name_H-M 'P 1'
_symmetry_Int_Tables_number 1
loop_
_symmetry_equiv_pos_site_id
_symmetry_equiv_pos_as_xyz
1 x,y,z
_cell_length_a         5.1570000000
_cell_length_b         7.1380000000
_cell_length_c         5.1730000000
_cell_angle_alpha        90.0000
_cell_angle_beta       107.6120
_cell_angle_gamma        90.0000
_cell_formula_units_Z 1
loop_
_atom_site_label
_atom_site_type_symbol
_atom_site_fract_x
_atom_site_fract_y
_atom_site_fract_z
N1     N      0.49972000000000     0.20320000000000     0.48626000000000
N1     N      0.50028000000000     0.70320000000000     0.51374000000000
H2     H      0.60326000000000     0.14431000000000     0.36998000000000
H2     H      0.39674000000000     0.64431000000000     0.63002000000000
C3     C      0.20822000000000     0.15188000000000     0.44005000000000
C3     C      0.79178000000000     0.65188000000000     0.55995000000000
H4     H      0.15479000000000     0.01298000000000     0.35674000000000
H4     H      0.84521000000000     0.51298000000000     0.64326000000000
H5     H      0.06410000000000     0.25356000000000     0.32314000000000
H5     H      0.93590000000000     0.75356000000000     0.67686000000000
C6     C      0.57472000000000     0.15322000000000     0.78112000000000
C6     C      0.42528000000000     0.65322000000000     0.21888000000000
H7     H      0.66156000000000     0.01492000000000     0.83188000000000
H7     H      0.33844000000000     0.51492000000000     0.16812000000000
H8     H      0.70189000000000     0.25567000000000     0.91560000000000
H8     H      0.29811000000000     0.75567000000000     0.08440000000000
C9     C      0.26397000000000     0.15610000000000     0.75499000000000
C9     C      0.73603000000000     0.65610000000000     0.24501000000000
H10    H      0.18702000000000     0.03887000000000     0.84276000000000
H10    H      0.81298000000000     0.53887000000000     0.15724000000000
H11    H      0.20239000000000     0.28757000000000     0.82300000000000
H11    H      0.79761000000000     0.78757000000000     0.17700000000000
