data_default
_cell_volume           189.318934
_symmetry_space_group_name_H-M 'P 1'
_symmetry_Int_Tables_number 1
loop_
_symmetry_equiv_pos_site_id
_symmetry_equiv_pos_as_xyz
1 x,y,z
_cell_length_a         5.1964000000
_cell_length_b         5.4688000000
_cell_length_c         6.8539000000
_cell_angle_alpha        90.0000
_cell_angle_beta       103.5930
_cell_angle_gamma        90.0000
_cell_formula_units_Z 1
loop_
_atom_site_label
_atom_site_type_symbol
_atom_site_fract_x
_atom_site_fract_y
_atom_site_fract_z
N4     N      0.84079000000000     0.54834000000000     0.10995000000000
N4     N      0.15921000000000     0.04834000000000     0.89005000000000
C1     C      0.66581000000000     0.40747000000000     0.33665000000000
C1     C      0.33419000000000     0.90747000000000     0.66335000000000
C2     C      0.94743000000000     0.40945000000000     0.29755000000000
C2     C      0.05257000000000     0.90945000000000     0.70245000000000
C3     C      0.60621000000000     0.62145000000000     0.18475000000000
C3     C      0.39379000000000     0.12145000000000     0.81525000000000
H5     H      0.55552000000000     0.24182000000000     0.28011000000000
H5     H      0.44448000000000     0.74182000000000     0.71989000000000
H6     H      0.64803000000000     0.44326000000000     0.48978000000000
H6     H      0.35197000000000     0.94326000000000     0.51022000000000
H7     H      0.03724000000000     0.23325000000000     0.27538000000000
H7     H      0.96276000000000     0.73325000000000     0.72462000000000
H8     H      0.08817000000000     0.51246000000000     0.41390000000000
H8     H      0.91183000000000     0.01246000000000     0.58610000000000
H9     H      0.41857000000000     0.61764000000000     0.07087000000000
H9     H      0.58143000000000     0.11764000000000     0.92913000000000
H10    H      0.62481000000000     0.80035000000000     0.26073000000000
H10    H      0.37519000000000     0.30035000000000     0.73927000000000
H11    H      0.95645000000000     0.68885000000000     0.08318000000000
H11    H      0.04355000000000     0.18885000000000     0.91682000000000
