data_default
_cell_volume           773.860471
_symmetry_space_group_name_H-M 'P 1'
_symmetry_Int_Tables_number 1
loop_
_symmetry_equiv_pos_site_id
_symmetry_equiv_pos_as_xyz
1 x,y,z
_cell_length_a         4.4230000000
_cell_length_b        10.2670000000
_cell_length_c        17.0440000000
_cell_angle_alpha        90.0000
_cell_angle_beta        88.9760
_cell_angle_gamma        90.0000
_cell_formula_units_Z 1
loop_
_atom_site_label
_atom_site_type_symbol
_atom_site_fract_x
_atom_site_fract_y
_atom_site_fract_z
N1     N      0.05843000000000     0.28505000000000     0.15324000000000
N1     N      0.94157000000000     0.71495000000000     0.84676000000000
N1     N      0.94157000000000     0.78505000000000     0.34676000000000
N1     N      0.05843000000000     0.21495000000000     0.65324000000000
H2     H      0.22502000000000     0.27479000000000     0.19230000000000
H2     H      0.77498000000000     0.72521000000000     0.80770000000000
H2     H      0.77498000000000     0.77479000000000     0.30770000000000
H2     H      0.22502000000000     0.22521000000000     0.69230000000000
C3     C      0.07887000000000     0.20227000000000     0.08330000000000
C3     C      0.92113000000000     0.79773000000000     0.91670000000000
C3     C      0.92113000000000     0.70227000000000     0.41670000000000
C3     C      0.07887000000000     0.29773000000000     0.58330000000000
H4     H      0.92685000000000     0.11955000000000     0.08420000000000
H4     H      0.07315000000000     0.88045000000000     0.91580000000000
H4     H      0.07315000000000     0.61955000000000     0.41580000000000
H4     H      0.92685000000000     0.38045000000000     0.58420000000000
H5     H      0.30592000000000     0.16790000000000     0.06910000000000
H5     H      0.69408000000000     0.83210000000000     0.93090000000000
H5     H      0.69408000000000     0.66790000000000     0.43090000000000
H5     H      0.30592000000000     0.33210000000000     0.56910000000000
C6     C      0.07799000000000     0.40287000000000     0.10482000000000
C6     C      0.92201000000000     0.59713000000000     0.89518000000000
C6     C      0.92201000000000     0.90287000000000     0.39518000000000
C6     C      0.07799000000000     0.09713000000000     0.60482000000000
H7     H      0.30472000000000     0.44303000000000     0.09878000000000
H7     H      0.69528000000000     0.55697000000000     0.90122000000000
H7     H      0.69528000000000     0.94303000000000     0.40122000000000
H7     H      0.30472000000000     0.05697000000000     0.59878000000000
H8     H      0.92495000000000     0.47989000000000     0.12309000000000
H8     H      0.07505000000000     0.52011000000000     0.87691000000000
H8     H      0.07505000000000     0.97989000000000     0.37691000000000
H8     H      0.92495000000000     0.02011000000000     0.62309000000000
C9     C      0.99103000000000     0.32064000000000     0.03332000000000
C9     C      0.00897000000000     0.67936000000000     0.96668000000000
C9     C      0.00897000000000     0.82064000000000     0.46668000000000
C9     C      0.99103000000000     0.17936000000000     0.53332000000000
H10    H      0.75162000000000     0.32437000000000     0.02167000000000
H10    H      0.24838000000000     0.67563000000000     0.97833000000000
H10    H      0.24838000000000     0.82437000000000     0.47833000000000
H10    H      0.75162000000000     0.17563000000000     0.52167000000000
H11    H      0.11779000000000     0.33649000000000     0.97940000000000
H11    H      0.88221000000000     0.66351000000000     0.02060000000000
H11    H      0.88221000000000     0.83649000000000     0.52060000000000
H11    H      0.11779000000000     0.16351000000000     0.47940000000000
N1     N      0.55177000000000     0.19154000000000     0.76060000000000
N1     N      0.44823000000000     0.80846000000000     0.23940000000000
N1     N      0.44823000000000     0.69154000000000     0.73940000000000
N1     N      0.55177000000000     0.30846000000000     0.26060000000000
H2     H      0.72135000000000     0.20792000000000     0.72153000000000
H2     H      0.27865000000000     0.79208000000000     0.27847000000000
H2     H      0.27865000000000     0.70792000000000     0.77847000000000
H2     H      0.72135000000000     0.29208000000000     0.22153000000000
C3     C      0.58894000000000     0.25406000000000     0.83720000000000
C3     C      0.41106000000000     0.74594000000000     0.16280000000000
C3     C      0.41106000000000     0.75406000000000     0.66280000000000
C3     C      0.58894000000000     0.24594000000000     0.33720000000000
H4     H      0.44722000000000     0.33887000000000     0.84671000000000
H4     H      0.55278000000000     0.66113000000000     0.15329000000000
H4     H      0.55278000000000     0.83887000000000     0.65329000000000
H4     H      0.44722000000000     0.16113000000000     0.34671000000000
H5     H      0.82101000000000     0.28013000000000     0.85002000000000
H5     H      0.17899000000000     0.71987000000000     0.14998000000000
H5     H      0.17899000000000     0.78013000000000     0.64998000000000
H5     H      0.82101000000000     0.21987000000000     0.35002000000000
C6     C      0.55288000000000     0.06182000000000     0.79692000000000
C6     C      0.44712000000000     0.93818000000000     0.20308000000000
C6     C      0.44712000000000     0.56182000000000     0.70308000000000
C6     C      0.55288000000000     0.43818000000000     0.29692000000000
H7     H      0.77063000000000     0.01285000000000     0.79397000000000
H7     H      0.22937000000000     0.98715000000000     0.20603000000000
H7     H      0.22937000000000     0.51285000000000     0.70603000000000
H7     H      0.77063000000000     0.48715000000000     0.29397000000000
H8     H      0.38208000000000     0.99623000000000     0.77504000000000
H8     H      0.61792000000000     0.00377000000000     0.22496000000000
H8     H      0.61792000000000     0.49623000000000     0.72496000000000
H8     H      0.38208000000000     0.50377000000000     0.27504000000000
C9     C      0.49066000000000     0.12608000000000     0.87717000000000
C9     C      0.50934000000000     0.87392000000000     0.12283000000000
C9     C      0.50934000000000     0.62608000000000     0.62283000000000
C9     C      0.49066000000000     0.37392000000000     0.37717000000000
H10    H      0.25333000000000     0.12522000000000     0.89371000000000
H10    H      0.74667000000000     0.87478000000000     0.10629000000000
H10    H      0.74667000000000     0.62522000000000     0.60629000000000
H10    H      0.25333000000000     0.37478000000000     0.39371000000000
H11    H      0.62219000000000     0.09291000000000     0.92622000000000
H11    H      0.37781000000000     0.90709000000000     0.07378000000000
H11    H      0.37781000000000     0.59291000000000     0.57378000000000
H11    H      0.62219000000000     0.40709000000000     0.42622000000000
