data_stdin
_cell_volume           393.072631
_symmetry_space_group_name_H-M 'P 1'
_symmetry_Int_Tables_number 1
loop_
_symmetry_equiv_pos_site_id
_symmetry_equiv_pos_as_xyz
1 x,y,z
_cell_length_a         6.6390000000
_cell_length_b         6.6390000000
_cell_length_c         8.9180000000
_cell_angle_alpha        90.0000
_cell_angle_beta        90.0000
_cell_angle_gamma        90.0000
_cell_formula_units_Z 1
loop_
_atom_site_label
_atom_site_type_symbol
_atom_site_fract_x
_atom_site_fract_y
_atom_site_fract_z
c      C      0.00000000000000     1.00000000000000     0.19800000000000
c      C      0.50000000000000     0.50000000000000     0.30200000000000
c      C      0.50000000000000     0.50000000000000     0.69800000000000
c      C      0.00000000000000     0.00000000000000     0.80200000000000
c      C      0.97380000000000     0.18620000000000     0.09920000000000
c      C      0.47380000000000     0.31380000000000     0.40080000000000
c      C      0.68620000000000     0.47380000000000     0.59920000000000
c      C      0.18620000000000     0.02620000000000     0.90080000000000
c      C      0.81380000000000     0.97380000000000     0.90080000000000
c      C      0.31380000000000     0.52620000000000     0.59920000000000
c      C      0.52620000000000     0.68620000000000     0.40080000000000
c      C      0.02620000000000     0.81380000000000     0.09920000000000
c      C      0.16000000000000     0.21220000000000     0.00000000000000
c      C      0.66000000000000     0.28780000000000     0.50000000000000
c      C      0.71220000000000     0.66000000000000     0.50000000000000
c      C      0.21220000000000     0.84000000000000     0.00000000000000
c      C      0.78780000000000     0.16000000000000     0.00000000000000
c      C      0.28780000000000     0.34000000000000     0.50000000000000
c      C      0.34000000000000     0.71220000000000     0.50000000000000
c      C      0.84000000000000     0.78780000000000     0.00000000000000
h      H      0.11560000000000     0.00990000000000     0.26880000000000
h      H      0.61560000000000     0.49010000000000     0.23120000000000
h      H      0.50990000000000     0.61560000000000     0.76880000000000
h      H      0.00990000000000     0.88440000000000     0.73120000000000
h      H      0.99010000000000     0.11560000000000     0.73120000000000
h      H      0.49010000000000     0.38440000000000     0.76880000000000
h      H      0.38440000000000     0.50990000000000     0.23120000000000
h      H      0.88440000000000     0.99010000000000     0.26880000000000
h      H      0.96450000000000     0.30160000000000     0.15900000000000
h      H      0.46450000000000     0.19840000000000     0.34100000000000
h      H      0.80160000000000     0.46450000000000     0.65900000000000
h      H      0.30160000000000     0.03550000000000     0.84100000000000
h      H      0.69840000000000     0.96450000000000     0.84100000000000
h      H      0.19840000000000     0.53550000000000     0.65900000000000
h      H      0.53550000000000     0.80160000000000     0.34100000000000
h      H      0.03550000000000     0.69840000000000     0.15900000000000
h      H      0.28170000000000     0.23030000000000     0.06260000000000
h      H      0.78170000000000     0.26970000000000     0.43740000000000
h      H      0.73030000000000     0.78170000000000     0.56260000000000
h      H      0.23030000000000     0.71830000000000     0.93740000000000
h      H      0.76970000000000     0.28170000000000     0.93740000000000
h      H      0.26970000000000     0.21830000000000     0.56260000000000
h      H      0.21830000000000     0.73030000000000     0.43740000000000
h      H      0.71830000000000     0.76970000000000     0.06260000000000
h      H      0.14270000000000     0.32860000000000     0.94300000000000
h      H      0.64270000000000     0.17140000000000     0.55700000000000
h      H      0.82860000000000     0.64270000000000     0.44300000000000
h      H      0.32860000000000     0.85730000000000     0.05700000000000
h      H      0.67140000000000     0.14270000000000     0.05700000000000
h      H      0.17140000000000     0.35730000000000     0.44300000000000
h      H      0.35730000000000     0.82860000000000     0.55700000000000
h      H      0.85730000000000     0.67140000000000     0.94300000000000
