data_stdin
_cell_volume           135.045176
_symmetry_space_group_name_H-M 'P 1'
_symmetry_Int_Tables_number 1
loop_
_symmetry_equiv_pos_site_id
_symmetry_equiv_pos_as_xyz
1 x,y,z
_cell_length_a         5.1305000000
_cell_length_b         5.1305000000
_cell_length_c         5.1305000000
_cell_angle_alpha        90.0000
_cell_angle_beta        90.0000
_cell_angle_gamma        90.0000
_cell_formula_units_Z 1
loop_
_atom_site_label
_atom_site_type_symbol
_atom_site_fract_x
_atom_site_fract_y
_atom_site_fract_z
n      N      0.21070000000000     0.21070000000000     0.21070000000000
n      N      0.71070000000000     0.28930000000000     0.78930000000000
n      N      0.78930000000000     0.71070000000000     0.28930000000000
n      N      0.28930000000000     0.78930000000000     0.71070000000000
h      H      0.36890000000000     0.26710000000000     0.11590000000000
h      H      0.86890000000000     0.23290000000000     0.88410000000000
h      H      0.11590000000000     0.36890000000000     0.26710000000000
h      H      0.88410000000000     0.86890000000000     0.23290000000000
h      H      0.26710000000000     0.11590000000000     0.36890000000000
h      H      0.23290000000000     0.88410000000000     0.86890000000000
h      H      0.76710000000000     0.38410000000000     0.63110000000000
h      H      0.73290000000000     0.61590000000000     0.13110000000000
h      H      0.61590000000000     0.13110000000000     0.73290000000000
h      H      0.38410000000000     0.63110000000000     0.76710000000000
h      H      0.63110000000000     0.76710000000000     0.38410000000000
h      H      0.13110000000000     0.73290000000000     0.61590000000000
