data_stdin
_cell_volume           456.469453
_symmetry_space_group_name_H-M 'P 1'
_symmetry_Int_Tables_number 1
loop_
_symmetry_equiv_pos_site_id
_symmetry_equiv_pos_as_xyz
1 x,y,z
_cell_length_a         8.4144000000
_cell_length_b         5.9903000000
_cell_length_c        11.0953000000
_cell_angle_alpha        90.0000
_cell_angle_beta       125.2930
_cell_angle_gamma        90.0000
_cell_formula_units_Z 1
loop_
_atom_site_label
_atom_site_type_symbol
_atom_site_fract_x
_atom_site_fract_y
_atom_site_fract_z
c      C      0.08610000000000     0.02660000000000     0.36810000000000
c      C      0.91390000000000     0.97340000000000     0.63190000000000
c      C      0.58610000000000     0.47340000000000     0.36810000000000
c      C      0.41390000000000     0.52660000000000     0.63190000000000
c      C      0.11720000000000     0.15550000000000     0.28300000000000
c      C      0.88280000000000     0.84450000000000     0.71700000000000
c      C      0.61720000000000     0.34450000000000     0.28300000000000
c      C      0.38280000000000     0.65550000000000     0.71700000000000
c      C      0.05850000000000     0.08140000000000     0.13980000000000
c      C      0.94150000000000     0.91860000000000     0.86020000000000
c      C      0.55850000000000     0.41860000000000     0.13980000000000
c      C      0.44150000000000     0.58140000000000     0.86020000000000
c      C      0.08700000000000     0.21110000000000     0.04910000000000
c      C      0.91300000000000     0.78890000000000     0.95090000000000
c      C      0.58700000000000     0.28890000000000     0.04910000000000
c      C      0.41300000000000     0.71110000000000     0.95090000000000
c      C      0.96930000000000     0.86570000000000     0.08960000000000
c      C      0.03070000000000     0.13430000000000     0.91040000000000
c      C      0.46930000000000     0.63430000000000     0.08960000000000
c      C      0.53070000000000     0.36570000000000     0.91040000000000
c      C      0.93980000000000     0.73570000000000     0.18340000000000
c      C      0.06020000000000     0.26430000000000     0.81660000000000
c      C      0.43980000000000     0.76430000000000     0.18340000000000
c      C      0.56020000000000     0.23570000000000     0.81660000000000
c      C      0.99510000000000     0.81370000000000     0.31740000000000
c      C      0.00490000000000     0.18630000000000     0.68260000000000
c      C      0.49510000000000     0.68630000000000     0.31740000000000
c      C      0.50490000000000     0.31370000000000     0.68260000000000
h      H      0.12300000000000     0.07600000000000     0.46600000000000
h      H      0.87700000000000     0.92400000000000     0.53400000000000
h      H      0.62300000000000     0.42400000000000     0.46600000000000
h      H      0.37700000000000     0.57600000000000     0.53400000000000
h      H      0.18400000000000     0.30200000000000     0.31900000000000
h      H      0.81600000000000     0.69800000000000     0.68100000000000
h      H      0.68400000000000     0.19800000000000     0.31900000000000
h      H      0.31600000000000     0.80200000000000     0.68100000000000
h      H      0.15100000000000     0.35400000000000     0.08500000000000
h      H      0.84900000000000     0.64600000000000     0.91500000000000
h      H      0.65100000000000     0.14600000000000     0.08500000000000
h      H      0.34900000000000     0.85400000000000     0.91500000000000
h      H      0.87600000000000     0.59000000000000     0.14500000000000
h      H      0.12400000000000     0.41000000000000     0.85500000000000
h      H      0.37600000000000     0.91000000000000     0.14500000000000
h      H      0.62400000000000     0.09000000000000     0.85500000000000
h      H      0.96700000000000     0.72400000000000     0.38000000000000
h      H      0.03300000000000     0.27600000000000     0.62000000000000
h      H      0.46700000000000     0.77600000000000     0.38000000000000
h      H      0.53300000000000     0.22400000000000     0.62000000000000
