data_stdin
_cell_volume           472.424253
_symmetry_space_group_name_H-M 'P 1'
_symmetry_Int_Tables_number 1
loop_
_symmetry_equiv_pos_site_id
_symmetry_equiv_pos_as_xyz
1 x,y,z
_cell_length_a        13.0440000000
_cell_length_b         9.4960000000
_cell_length_c         3.8140000000
_cell_angle_alpha        90.0000
_cell_angle_beta        90.0000
_cell_angle_gamma        90.0000
_cell_formula_units_Z 1
loop_
_atom_site_label
_atom_site_type_symbol
_atom_site_fract_x
_atom_site_fract_y
_atom_site_fract_z
c      C      0.98360000000000     0.15610000000000     0.32760000000000
c      C      0.48360000000000     0.34390000000000     0.67240000000000
c      C      0.01640000000000     0.65610000000000     0.17240000000000
c      C      0.51640000000000     0.84390000000000     0.82760000000000
c      C      0.13080000000000     0.26350000000000     0.54920000000000
c      C      0.63080000000000     0.23650000000000     0.45080000000000
c      C      0.86920000000000     0.76350000000000     0.95080000000000
c      C      0.36920000000000     0.73650000000000     0.04920000000000
c      C      0.17050000000000     0.13370000000000     0.66740000000000
c      C      0.67050000000000     0.36630000000000     0.33260000000000
c      C      0.82950000000000     0.63370000000000     0.83260000000000
c      C      0.32950000000000     0.86630000000000     0.16740000000000
c      C      0.11340000000000     0.01870000000000     0.60840000000000
c      C      0.61340000000000     0.48130000000000     0.39160000000000
c      C      0.88660000000000     0.51870000000000     0.89160000000000
c      C      0.38660000000000     0.98130000000000     0.10840000000000
h      H      0.98700000000000     0.94300000000000     0.36300000000000
h      H      0.48700000000000     0.55700000000000     0.63700000000000
h      H      0.01300000000000     0.44300000000000     0.13700000000000
h      H      0.51300000000000     0.05700000000000     0.86300000000000
h      H      0.15400000000000     0.46300000000000     0.54100000000000
h      H      0.65400000000000     0.03700000000000     0.45900000000000
h      H      0.84600000000000     0.96300000000000     0.95900000000000
h      H      0.34600000000000     0.53700000000000     0.04100000000000
h      H      0.24800000000000     0.37800000000000     0.65200000000000
h      H      0.74800000000000     0.12200000000000     0.34800000000000
h      H      0.75200000000000     0.87800000000000     0.84800000000000
h      H      0.25200000000000     0.62200000000000     0.15200000000000
h      H      0.23700000000000     0.12800000000000     0.79600000000000
h      H      0.73700000000000     0.37200000000000     0.20400000000000
h      H      0.76300000000000     0.62800000000000     0.70400000000000
h      H      0.26300000000000     0.87200000000000     0.29600000000000
h      H      0.13200000000000     0.92200000000000     0.69200000000000
h      H      0.63200000000000     0.57800000000000     0.30800000000000
h      H      0.86800000000000     0.42200000000000     0.80800000000000
h      H      0.36800000000000     0.07800000000000     0.19200000000000
n      N      0.02220000000000     0.02850000000000     0.44100000000000
n      N      0.52220000000000     0.47150000000000     0.55900000000000
n      N      0.97780000000000     0.52850000000000     0.05900000000000
n      N      0.47780000000000     0.97150000000000     0.94100000000000
n      N      0.04020000000000     0.27450000000000     0.38770000000000
n      N      0.54020000000000     0.22550000000000     0.61230000000000
n      N      0.95980000000000     0.77450000000000     0.11230000000000
n      N      0.45980000000000     0.72550000000000     0.88770000000000
n      N      0.18420000000000     0.38280000000000     0.59670000000000
n      N      0.68420000000000     0.11720000000000     0.40330000000000
n      N      0.81580000000000     0.88280000000000     0.90330000000000
n      N      0.31580000000000     0.61720000000000     0.09670000000000
o      O      0.90020000000000     0.15950000000000     0.17100000000000
o      O      0.40020000000000     0.34050000000000     0.82900000000000
o      O      0.09980000000000     0.65950000000000     0.32900000000000
o      O      0.59980000000000     0.84050000000000     0.67100000000000
