data_stdin
_cell_volume           173.566243
_symmetry_space_group_name_H-M 'P 1'
_symmetry_Int_Tables_number 1
loop_
_symmetry_equiv_pos_site_id
_symmetry_equiv_pos_as_xyz
1 x,y,z
_cell_length_a         6.0864265378
_cell_length_b         6.0864265378
_cell_length_c         6.0864265378
_cell_angle_alpha        70.5288
_cell_angle_beta        70.5288
_cell_angle_gamma       109.4712
_cell_formula_units_Z 1
loop_
_atom_site_label
_atom_site_type_symbol
_atom_site_fract_x
_atom_site_fract_y
_atom_site_fract_z
c      C      0.23813000000000     0.23813000000000     0.00000000000000
c      C      0.23813000000000     0.00000000000000     0.76187000000000
c      C      0.00000000000000     0.23813000000000     0.76187000000000
c      C      0.00000000000000     0.76187000000000     0.23813000000000
c      C      0.76187000000000     0.00000000000000     0.23813000000000
c      C      0.76187000000000     0.76187000000000     0.00000000000000
n      N      0.24500000000000     0.24500000000000     0.75500000000000
n      N      0.00000000000000     0.00000000000000     0.24500000000000
n      N      0.00000000000000     0.75500000000000     0.00000000000000
n      N      0.75500000000000     0.00000000000000     0.00000000000000
