data_stdin
_cell_volume           348.758564
_symmetry_space_group_name_H-M 'P 1'
_symmetry_Int_Tables_number 1
loop_
_symmetry_equiv_pos_site_id
_symmetry_equiv_pos_as_xyz
1 x,y,z
_cell_length_a         7.5820000000
_cell_length_b         5.3710000000
_cell_length_c         9.7900000000
_cell_angle_alpha        90.0000
_cell_angle_beta       118.9800
_cell_angle_gamma        90.0000
_cell_formula_units_Z 1
loop_
_atom_site_label
_atom_site_type_symbol
_atom_site_fract_x
_atom_site_fract_y
_atom_site_fract_z
n      N      0.21890000000000     0.33280000000000     0.08740000000000
n      N      0.78110000000000     0.66720000000000     0.91260000000000
n      N      0.21890000000000     0.16720000000000     0.58740000000000
n      N      0.78110000000000     0.83280000000000     0.41260000000000
h      H      0.20460000000000     0.26590000000000     0.98110000000000
h      H      0.79540000000000     0.73410000000000     0.01890000000000
h      H      0.20460000000000     0.23410000000000     0.48110000000000
h      H      0.79540000000000     0.76590000000000     0.51890000000000
c      C      0.15780000000000     0.21960000000000     0.17950000000000
c      C      0.84220000000000     0.78040000000000     0.82050000000000
c      C      0.15780000000000     0.28040000000000     0.67950000000000
c      C      0.84220000000000     0.71960000000000     0.32050000000000
h      H      0.07850000000000     0.04510000000000     0.15140000000000
h      H      0.92150000000000     0.95490000000000     0.84860000000000
h      H      0.07850000000000     0.45490000000000     0.65140000000000
h      H      0.92150000000000     0.54510000000000     0.34860000000000
n      N      0.20850000000000     0.34680000000000     0.30890000000000
n      N      0.79150000000000     0.65320000000000     0.69110000000000
n      N      0.20850000000000     0.15320000000000     0.80890000000000
n      N      0.79150000000000     0.84680000000000     0.19110000000000
c      C      0.30830000000000     0.55150000000000     0.29840000000000
c      C      0.69170000000000     0.44850000000000     0.70160000000000
c      C      0.30830000000000     0.94850000000000     0.79840000000000
c      C      0.69170000000000     0.05150000000000     0.20160000000000
h      H      0.37130000000000     0.68810000000000     0.38980000000000
h      H      0.62870000000000     0.31190000000000     0.61020000000000
h      H      0.37130000000000     0.81190000000000     0.88980000000000
h      H      0.62870000000000     0.18810000000000     0.11020000000000
c      C      0.31640000000000     0.54450000000000     0.16280000000000
c      C      0.68360000000000     0.45550000000000     0.83720000000000
c      C      0.31640000000000     0.95550000000000     0.66280000000000
c      C      0.68360000000000     0.04450000000000     0.33720000000000
h      H      0.38710000000000     0.67100000000000     0.11830000000000
h      H      0.61290000000000     0.32900000000000     0.88170000000000
h      H      0.38710000000000     0.82900000000000     0.61830000000000
h      H      0.61290000000000     0.17100000000000     0.38170000000000
