data_stdin
_cell_volume           312.592248
_symmetry_space_group_name_H-M 'P 1'
_symmetry_Int_Tables_number 1
loop_
_symmetry_equiv_pos_site_id
_symmetry_equiv_pos_as_xyz
1 x,y,z
_cell_length_a         6.5480000000
_cell_length_b         7.8440000000
_cell_length_c         6.0860000000
_cell_angle_alpha        90.0000
_cell_angle_beta        90.0000
_cell_angle_gamma        90.0000
_cell_formula_units_Z 1
loop_
_atom_site_label
_atom_site_type_symbol
_atom_site_fract_x
_atom_site_fract_y
_atom_site_fract_z
c      C      0.05698000000000     0.05521000000000     0.91559000000000
c      C      0.94302000000000     0.94479000000000     0.08441000000000
c      C      0.05698000000000     0.55521000000000     0.58441000000000
c      C      0.55698000000000     0.44479000000000     0.91559000000000
c      C      0.55698000000000     0.94479000000000     0.58441000000000
c      C      0.44302000000000     0.05521000000000     0.41559000000000
c      C      0.44302000000000     0.55521000000000     0.08441000000000
c      C      0.94302000000000     0.44479000000000     0.41559000000000
h      H      0.09100000000000     0.27700000000000     0.84400000000000
h      H      0.90900000000000     0.72300000000000     0.15600000000000
h      H      0.09100000000000     0.77700000000000     0.65600000000000
h      H      0.59100000000000     0.22300000000000     0.84400000000000
h      H      0.59100000000000     0.72300000000000     0.65600000000000
h      H      0.40900000000000     0.27700000000000     0.34400000000000
h      H      0.40900000000000     0.77700000000000     0.15600000000000
h      H      0.90900000000000     0.22300000000000     0.34400000000000
o      O      0.15613000000000     0.99460000000000     0.76776000000000
o      O      0.84387000000000     0.00540000000000     0.23224000000000
o      O      0.15613000000000     0.49460000000000     0.73224000000000
o      O      0.65613000000000     0.50540000000000     0.76776000000000
o      O      0.65613000000000     0.00540000000000     0.73224000000000
o      O      0.34387000000000     0.99460000000000     0.26776000000000
o      O      0.34387000000000     0.49460000000000     0.23224000000000
o      O      0.84387000000000     0.50540000000000     0.26776000000000
o      O      0.02909000000000     0.21693000000000     0.95672000000000
o      O      0.97091000000000     0.78307000000000     0.04328000000000
o      O      0.02909000000000     0.71693000000000     0.54328000000000
o      O      0.52909000000000     0.28307000000000     0.95672000000000
o      O      0.52909000000000     0.78307000000000     0.54328000000000
o      O      0.47091000000000     0.21693000000000     0.45672000000000
o      O      0.47091000000000     0.71693000000000     0.04328000000000
o      O      0.97091000000000     0.28307000000000     0.45672000000000
