data_stdin
_cell_volume           239.283683
_symmetry_space_group_name_H-M 'P 1'
_symmetry_Int_Tables_number 1
loop_
_symmetry_equiv_pos_site_id
_symmetry_equiv_pos_as_xyz
1 x,y,z
_cell_length_a         5.4640000000
_cell_length_b         8.7660000000
_cell_length_c         5.0040000000
_cell_angle_alpha        90.0000
_cell_angle_beta        93.2900
_cell_angle_gamma        90.0000
_cell_formula_units_Z 1
loop_
_atom_site_label
_atom_site_type_symbol
_atom_site_fract_x
_atom_site_fract_y
_atom_site_fract_z
c      C      0.08280000000000     0.93250000000000     0.97440000000000
c      C      0.91720000000000     0.06750000000000     0.02560000000000
c      C      0.08280000000000     0.56750000000000     0.47440000000000
c      C      0.91720000000000     0.43250000000000     0.52560000000000
c      C      0.26140000000000     0.96560000000000     0.76450000000000
c      C      0.73860000000000     0.03440000000000     0.23550000000000
c      C      0.26140000000000     0.53440000000000     0.26450000000000
c      C      0.73860000000000     0.46560000000000     0.73550000000000
o      O      0.24990000000000     0.07800000000000     0.61850000000000
o      O      0.75010000000000     0.92200000000000     0.38150000000000
o      O      0.24990000000000     0.42200000000000     0.11850000000000
o      O      0.75010000000000     0.57800000000000     0.88150000000000
o      O      0.43180000000000     0.85930000000000     0.75250000000000
o      O      0.56820000000000     0.14070000000000     0.24750000000000
o      O      0.43180000000000     0.64070000000000     0.25250000000000
o      O      0.56820000000000     0.35930000000000     0.74750000000000
h      H      0.97500000000000     0.83220000000000     0.90530000000000
h      H      0.02500000000000     0.16780000000000     0.09470000000000
h      H      0.97500000000000     0.66780000000000     0.40530000000000
h      H      0.02500000000000     0.33220000000000     0.59470000000000
h      H      0.18760000000000     0.89600000000000     0.15650000000000
h      H      0.81240000000000     0.10400000000000     0.84350000000000
h      H      0.18760000000000     0.60400000000000     0.65650000000000
h      H      0.81240000000000     0.39600000000000     0.34350000000000
h      H      0.54360000000000     0.88070000000000     0.60420000000000
h      H      0.45640000000000     0.11930000000000     0.39580000000000
h      H      0.54360000000000     0.61930000000000     0.10420000000000
h      H      0.45640000000000     0.38070000000000     0.89580000000000
