data_stdin
_cell_volume           616.544469
_symmetry_space_group_name_H-M 'P 1'
_symmetry_Int_Tables_number 1
loop_
_symmetry_equiv_pos_site_id
_symmetry_equiv_pos_as_xyz
1 x,y,z
_cell_length_a         9.3200000000
_cell_length_b         9.3200000000
_cell_length_c         8.1960000000
_cell_angle_alpha        90.0000
_cell_angle_beta        90.0000
_cell_angle_gamma       120.0000
_cell_formula_units_Z 1
loop_
_atom_site_label
_atom_site_type_symbol
_atom_site_fract_x
_atom_site_fract_y
_atom_site_fract_z
c      C      0.13570000000000     0.15210000000000     0.97180000000000
c      C      0.46903333000000     0.81876667000000     0.63846667000000
c      C      0.80236666000000     0.48543334000000     0.30513334000000
c      C      0.13570000000000     0.98360000000000     0.47180000000000
c      C      0.46903333000000     0.65026667000000     0.13846667000000
c      C      0.80236666000000     0.31693334000000     0.80513334000000
c      C      0.01640000000000     0.15210000000000     0.47180000000000
c      C      0.34973333000000     0.81876667000000     0.13846667000000
c      C      0.68306666000000     0.48543334000000     0.80513334000000
c      C      0.01640000000000     0.86430000000000     0.97180000000000
c      C      0.34973333000000     0.53096667000000     0.63846667000000
c      C      0.68306666000000     0.19763334000000     0.30513334000000
c      C      0.84790000000000     0.98360000000000     0.97180000000000
c      C      0.18123333000000     0.65026667000000     0.63846667000000
c      C      0.51456666000000     0.31693334000000     0.30513334000000
c      C      0.84790000000000     0.86430000000000     0.47180000000000
c      C      0.18123333000000     0.53096667000000     0.13846667000000
c      C      0.51456666000000     0.19763334000000     0.80513334000000
h      H      0.13600000000000     0.16500000000000     0.84200000000000
h      H      0.46933333000000     0.83166667000000     0.50866667000000
h      H      0.80266666000000     0.49833334000000     0.17533334000000
h      H      0.13600000000000     0.97099999974500     0.34200000000000
h      H      0.46933333000000     0.63766666974500     0.00866667000000
h      H      0.80266666000000     0.30433333974500     0.67533334000000
h      H      0.02900000025500     0.16500000000000     0.34200000000000
h      H      0.36233333025500     0.83166667000000     0.00866667000000
h      H      0.69566666025500     0.49833334000000     0.67533334000000
h      H      0.02900000025500     0.86400000000000     0.84200000000000
h      H      0.36233333025500     0.53066667000000     0.50866667000000
h      H      0.69566666025500     0.19733334000000     0.17533334000000
h      H      0.83500000000000     0.97099999974500     0.84200000000000
h      H      0.16833333000000     0.63766666974500     0.50866667000000
h      H      0.50166666000000     0.30433333974500     0.17533334000000
h      H      0.83500000000000     0.86400000000000     0.34200000000000
h      H      0.16833333000000     0.53066667000000     0.00866667000000
h      H      0.50166666000000     0.19733334000000     0.67533334000000
h      H      0.23700000000000     0.25200000000000     0.03100000000000
h      H      0.57033333000000     0.91866667000000     0.69766667000000
h      H      0.90366666000000     0.58533334000000     0.36433334000000
h      H      0.23700000000000     0.98499999901500     0.53100000000000
h      H      0.57033333000000     0.65166666901500     0.19766667000000
h      H      0.90366666000000     0.31833333901500     0.86433334000000
h      H      0.01500000098500     0.25200000000000     0.53100000000000
h      H      0.34833333098500     0.91866667000000     0.19766667000000
h      H      0.68166666098500     0.58533334000000     0.86433334000000
h      H      0.01500000098500     0.76300000000000     0.03100000000000
h      H      0.34833333098500     0.42966667000000     0.69766667000000
h      H      0.68166666098500     0.09633334000000     0.36433334000000
h      H      0.74800000000000     0.98499999901500     0.03100000000000
h      H      0.08133333000000     0.65166666901500     0.69766667000000
h      H      0.41466666000000     0.31833333901500     0.36433334000000
h      H      0.74800000000000     0.76300000000000     0.53100000000000
h      H      0.08133333000000     0.42966667000000     0.19766667000000
h      H      0.41466666000000     0.09633334000000     0.86433334000000
o      O      0.15140000000000     0.01640000000000     0.02820000000000
o      O      0.48473333000000     0.68306667000000     0.69486667000000
o      O      0.81806666000000     0.34973334000000     0.36153334000000
o      O      0.15140000000000     0.13500000287100     0.52820000000000
o      O      0.48473333000000     0.80166667287100     0.19486667000000
o      O      0.81806666000000     0.46833334287100     0.86153334000000
o      O      0.86499999712900     0.01640000000000     0.52820000000000
o      O      0.19833332712900     0.68306667000000     0.19486667000000
o      O      0.53166665712900     0.34973334000000     0.86153334000000
o      O      0.86499999712900     0.84860000000000     0.02820000000000
o      O      0.19833332712900     0.51526667000000     0.69486667000000
o      O      0.53166665712900     0.18193334000000     0.36153334000000
o      O      0.98360000000000     0.13500000287100     0.02820000000000
o      O      0.31693333000000     0.80166667287100     0.69486667000000
o      O      0.65026666000000     0.46833334287100     0.36153334000000
o      O      0.98360000000000     0.84860000000000     0.52820000000000
o      O      0.31693333000000     0.51526667000000     0.19486667000000
o      O      0.65026666000000     0.18193334000000     0.86153334000000
